  19
      file 'w6s23-Final.log' was gotten at: ---' #p mp2=full gen pseudo=Read freq geom=check'---
Hg       0.5854007474     -0.1965271570     -0.2486446625
O       -0.7861907974      1.6811907761      0.0739880118
H       -0.4993328034      2.5860439080     -0.0958347179
H       -1.7650821952      1.6852806328      0.0179448463
O       -2.9284314504     -1.2317285704      0.5088862980
H       -3.3889355212     -0.4039729465      0.2763409994
H       -3.5805406878     -1.9162471545      0.6966126293
O        1.4491954816      0.0571220525      1.9955837745
H        1.8241312601     -0.6594353617      2.5245642474
H        1.0337530926      0.6496565235      2.6350861581
O       -0.7471322559     -1.7255233129     -0.4186423368
H       -1.7519816808     -1.5406402038     -0.0708065357
H       -0.7441196184     -2.2380245486     -1.2386756439
O        2.2769288640      1.0602558414     -0.5194589357
H        2.8771953694      1.0910229510      0.2412604871
H        2.8146963429      1.0780737900     -1.3252140751
O       -3.5596976202      1.4097729943     -0.0186776799
H       -4.0349664208      1.6775613935     -0.8158720265
H       -4.0367111064      1.8461103923      0.6994981620
