   16
Isomer:  w1s1
 P                    -0.48836   0.18296  -0.58584 
 O                    -1.82638  -0.08732  -1.18648 
 O                     0.7599    0.52909  -1.34708 
 O                    -0.03946  -1.12608   0.36465 
 O                    -0.72397   1.31907   0.60378 
 C                     0.44166   1.78823   1.26675 
 C                    -1.07371  -1.73157   1.12473 
 H                     0.97358   0.96951   1.76654 
 H                    -0.61328  -2.51978   1.72787 
 H                    -1.83881  -2.16312   0.47164 
 H                     0.11243   2.51476   2.01534 
 H                    -1.55444  -1.00218   1.7885 
 H                     1.12977   2.26706   0.56299 
 O                     2.88083  -0.83574  -0.12355 
 H                     2.15174  -1.29146   0.31253 
 H                     2.3493   -0.25137  -0.69714 
