   16
Isomer:  w1s4
 P                    -0.36765  -0.46822  -0.33122 
 O                     1.00839  -0.9628    0.01864 
 O                    -1.33124  -1.20148  -1.20354 
 O                    -0.23353   1.06526  -0.95762 
 O                    -1.08628  -0.12548   1.13116 
 C                    -2.44899   0.26433   1.07484 
 C                     0.70745   1.92643  -0.33004 
 H                    -3.07255  -0.53799   0.66708 
 H                     0.60427   2.90832  -0.80117 
 H                     1.731     1.56251  -0.4593 
 H                    -2.58169   1.15756   0.45086 
 H                     0.50434   2.01955   0.74416 
 H                    -2.7602    0.49172   2.09877 
 O                     3.5234   -0.30234   0.65287 
 H                     2.56693  -0.47935   0.4927 
 H                     3.92605  -1.02889   0.1743 
