   19
Isomer: w2s17
 P                    -0.54584  -0.09554   0.08576 
 O                     0.11007  -1.01065  -0.90822 
 O                     0.16599   0.40685   1.3086 
 O                    -1.96415  -0.77154   0.6089 
 O                    -1.13316   1.19047  -0.77845 
 C                    -1.69258   2.25305  -0.01946 
 C                    -2.7481   -1.42805  -0.37727 
 H                    -2.53969   1.90468   0.58464 
 H                    -3.64423  -1.80208   0.1253 
 H                    -2.19774  -2.261    -0.82557 
 H                    -2.04291   3.00428  -0.73253 
 H                    -3.04305  -0.73446  -1.17467 
 H                    -0.9461    2.69364   0.64869 
 O                     4.83796   0.39614  -0.43261 
 H                     4.37428   1.06808  -0.93568 
 H                     4.09241  -0.11479  -0.05749 
 O                     2.5882   -0.92359   0.52015 
 H                     1.99177  -0.39851   1.08175 
 H                     1.9477   -1.17833  -0.16753 
