   19
Isomer: w2s15
 P                    -1.07677   0.17989  -0.54219 
 O                     0.0654    0.18946  -1.52393 
 O                    -2.52035   0.08106  -0.89532 
 O                    -0.9161    1.48259   0.47079 
 O                    -0.67505  -1.05589   0.51747 
 C                    -1.63972  -1.36788   1.51259 
 C                     0.40625   1.81464   0.87173 
 H                    -2.56583  -1.73293   1.05801 
 H                     0.32737   2.65811   1.5629 
 H                     1.01561   2.10162   0.00826 
 H                    -1.87368  -0.48742   2.12328 
 H                     0.89313   0.97463   1.38176 
 H                    -1.20703  -2.14438   2.14961 
 O                     2.02339  -1.41533  -0.60063 
 H                     1.38843  -1.71891   0.05935 
 H                     1.42368  -0.8245   -1.11397 
 O                     4.13777   0.12912   0.3437 
 H                     3.43361  -0.47527   0.03316 
 H                     3.79655   0.98208   0.0679 
