   19
Isomer: w2s19
 P                    -0.2555    0.00172   0.00044 
 O                    -1.00746   0.35233  -1.25449 
 O                    -1.00575  -0.34784   1.25664 
 O                     0.87514   1.18056   0.29167 
 O                     0.87241  -1.17945  -0.29305 
 C                     0.43683  -2.5113   -0.04189 
 C                     0.44304   2.513     0.03788 
 H                    -0.41921  -2.77189  -0.67506 
 H                     1.28229   3.16914   0.28106 
 H                    -0.41211   2.77735   0.67069 
 H                     0.15425  -2.63665   1.00695 
 H                     0.16047   2.63699  -1.01113 
 H                     1.27425  -3.16916  -0.28671 
 O                    -3.63555  -0.00237   0.00095 
 H                    -3.00047  -0.19126   0.70844 
 H                    -3.00067   0.18929  -0.706 
 O                     3.50003  -0.00755   0.00132 
 H                     2.85605  -0.67489  -0.2712 
 H                     2.86777   0.66967   0.27615 
