   19
Isomer: w2s1
 P                    -0.00007  -0.00013   0.6625 
 O                    -1.21052   0.55156   1.35089 
 O                     1.21025  -0.55199   1.35097 
 O                     0.5887    1.13325  -0.40715 
 O                    -0.58866  -1.13323  -0.40755 
 C                     0.37776  -1.89824  -1.12059 
 C                    -0.37757   1.89841  -1.12023 
 H                     0.98103  -2.49957  -0.4342 
 H                     0.17332   2.55227  -1.80139 
 H                    -0.98104   2.49953  -0.43384 
 H                     1.04771  -1.25102  -1.69779 
 H                    -1.04737   1.25131  -1.69777 
 H                    -0.17299  -2.5519   -1.80205 
 O                     3.42794   0.21721  -0.21591 
 H                     2.86774  -0.19841   0.46452 
 H                     2.76972   0.8112   -0.59372 
 O                    -3.42782  -0.21682  -0.21692 
 H                    -2.76957  -0.81082  -0.59468 
 H                    -2.86778   0.19849   0.46383 
