   19
Isomer: w2s12
 P                    -0.63578  -0.53307  -0.43291 
 O                    -1.82264  -1.42528  -0.25156 
 O                     0.45162  -0.7721   -1.4365 
 O                     0.09195  -0.30005   1.07266 
 O                    -1.1107    1.04072  -0.60745 
 C                    -2.20999   1.46585   0.19086 
 C                     0.63979  -1.46698   1.67541 
 H                    -1.9783    1.36882   1.25748 
 H                     1.06557  -1.16544   2.63557 
 H                     1.43119  -1.89223   1.04894 
 H                    -3.1043    0.87726  -0.03377 
 H                    -0.1432   -2.21533   1.84073 
 H                    -2.38623   2.51787  -0.04693 
 O                     3.0919   -0.09743  -0.79085 
 H                     2.2168   -0.39322  -1.10836 
 H                     2.85607   0.70997  -0.32057 
 O                     1.43416   2.13003   0.6578 
 H                     0.87514   2.28439  -0.11174 
 H                     1.03484   1.30349   0.98186 
