   19
Isomer: w2s22
 P                     0.87124   0.03294   0.00457 
 O                     0.12197  -0.38813  -1.23752 
 O                     0.08676   0.22522   1.28085 
 O                     1.78747   1.36968  -0.27339 
 O                     2.14962  -0.97643   0.23339 
 C                     1.8789   -2.35286   0.01172 
 C                     1.12661   2.60779  -0.05243 
 H                     1.57175  -2.53109  -1.02336 
 H                     1.84085   3.39558  -0.30369 
 H                     0.81518   2.70555   0.99203 
 H                     1.09026  -2.71801   0.68128 
 H                     0.24345   2.70963  -0.69502 
 H                     2.80383  -2.89434   0.22485 
 O                    -2.37846  -0.42703   0.075 
 H                    -1.73924  -0.49835  -0.65725 
 H                    -1.75688  -0.15329   0.7741 
 O                    -5.08769   0.04663  -0.06804 
 H                    -5.29842  -0.86206   0.1525 
 H                    -4.10974   0.02322  -0.05212 
