   19
Isomer: w2s23
 P                    -1.39959  -0.1076    0.32337 
 O                    -1.63659   0.22453   1.75733 
 O                    -2.47367  -0.29897  -0.70492 
 O                    -0.34566  -1.39094   0.28451 
 O                    -0.29005   1.00553  -0.32329 
 C                    -0.84665   2.19157  -0.86675 
 C                    -0.09077  -1.95877  -0.99591 
 H                    -1.41195   2.74699  -0.10815 
 H                     0.36037  -1.22025  -1.66839 
 H                    -1.01481  -2.33156  -1.44677 
 H                    -1.51227   1.95769  -1.70413 
 H                     0.6109   -2.7833   -0.84525 
 H                    -0.01559   2.81064  -1.21628 
 O                     2.14814   0.1412    0.63689 
 H                     1.40841   0.63834   0.23975 
 H                     1.66218  -0.62707   0.96128 
 O                     4.79673   0.11256  -0.20232 
 H                     5.10045   0.62073   0.55169 
 H                     3.8394    0.05358  -0.02399 
