   19
Isomer: w2s21
 P                    -0.66739  -0.19069   0.62528 
 O                    -1.80265  -0.13244   1.58661 
 O                     0.78789  -0.04758   1.00313 
 O                    -0.86838   0.96952  -0.5619 
 O                    -0.85455  -1.56877  -0.26504 
 C                     0.14119  -1.85333  -1.24224 
 C                    -2.19699   1.15845  -1.02938 
 H                     1.11593  -2.03181  -0.78151 
 H                    -2.15498   1.90776  -1.82477 
 H                    -2.84959   1.50754  -0.22341 
 H                     0.24014  -1.02735  -1.9569 
 H                    -2.60899   0.22547  -1.43313 
 H                    -0.18627  -2.7514   -1.77248 
 O                     1.9225    2.14717  -0.2472 
 H                     1.5904    1.48338   0.38913 
 H                     1.15224   2.19358  -0.82272 
 O                     3.34292  -0.63225   0.05134 
 H                     3.35838   0.24884  -0.33678 
 H                     2.46663  -0.61151   0.47764 
