   19
Isomer: w2s8
 P                    -0.01703  -0.34663   0.48461 
 O                    -0.09119   1.10859   0.86995 
 O                     0.13627  -1.46141   1.47068 
 O                     1.14925  -0.52251  -0.69612 
 O                    -1.33072  -0.59729  -0.48483 
 C                    -1.53832  -1.92173  -0.95565 
 C                     2.43685  -0.92598  -0.24533 
 H                    -1.66856  -2.61726  -0.12082 
 H                     3.06725  -1.02315  -1.13319 
 H                     2.38388  -1.88335   0.28215 
 H                    -0.69202  -2.25154  -1.56889 
 H                     2.87769  -0.17497   0.42027 
 H                    -2.4432   -1.9038   -1.56795 
 O                    -2.63016   2.04314  -0.04284 
 H                    -2.59395   1.18526  -0.48008 
 H                    -1.7791    1.99645   0.42469 
 O                     1.85875   2.54006  -0.51652 
 H                     1.17615   2.19322   0.09097 
 H                     1.79859   1.88016  -1.21297 
