   22
Isomer: w3s19
 P                    -0.86073   0.24504  -0.191 
 O                     0.16247   0.23181  -1.30552 
 O                    -0.99967   1.4524    0.6917 
 O                    -0.62838  -1.09318   0.75988 
 O                    -2.28713  -0.18838  -0.85551 
 C                    -3.42089  -0.17563   0.00329 
 C                     0.26543  -0.92104   1.86152 
 H                    -3.58195   0.82194   0.42349 
 H                     0.33558  -1.88986   2.36193 
 H                    -0.12062  -0.1707    2.55797 
 H                    -3.29657  -0.89401   0.82131 
 H                     1.26293  -0.62015   1.52636 
 H                    -4.28018  -0.46483  -0.60564 
 O                     3.71093  -0.06372   0.43944 
 H                     3.23382  -0.7005   -0.1125 
 H                     3.19941   0.74889   0.30986 
 O                     1.85698   2.16321  -0.18898 
 H                     1.12975   2.35335   0.41813 
 H                     1.38016   1.59261  -0.82042 
 O                     1.92475  -1.8011   -1.1868 
 H                     1.37954  -2.4051   -0.67578 
 H                     1.28221  -1.07549  -1.36225 
