   22
Isomer: w3s15
 P                     1.10555  -0.41327  -0.45135 
 O                    -0.30124  -0.35541  -1.01598 
 O                     2.29941  -0.85479  -1.22081 
 O                     1.06885  -1.27115   0.9519 
 O                     1.331     1.13053   0.13075 
 C                     2.63614   1.43246   0.60911 
 C                    -0.04458  -1.06076   1.82085 
 H                     2.93129   0.74214   1.40829 
 H                     0.20238  -1.54658   2.76794 
 H                    -0.9547   -1.50394   1.40955 
 H                     2.60418   2.45069   1.0052 
 H                    -0.21649   0.0069    1.99621 
 H                     3.37153   1.36929  -0.19834 
 O                    -1.42234   2.1173   -0.62029 
 H                    -0.6425    2.40204  -0.13288 
 H                    -1.09856   1.24715  -0.93283 
 O                    -2.62313  -1.56933  -0.58343 
 H                    -1.72788  -1.18595  -0.74504 
 H                    -2.88083  -1.8821   -1.45259 
 O                    -3.74917   0.85969   0.66405 
 H                    -3.50928  -0.00414   0.29995 
 H                    -3.03885   1.41863   0.31543 
