   22
Isomer: w3s17
 P                    -0.86905   0.04696   0.06064 
 O                    -0.39203   0.23315   1.47845 
 O                     0.15937  -0.36595  -0.97833 
 O                    -1.68737   1.3707   -0.43578 
 O                    -2.1427   -0.97622  -0.02125 
 C                    -1.80383  -2.35836  -0.0497 
 C                    -1.0609    2.61764  -0.1384 
 H                    -1.22061  -2.64261   0.83411 
 H                    -1.72113   3.39603  -0.52595 
 H                    -0.08305   2.6976   -0.62593 
 H                    -1.23078  -2.60177  -0.94972 
 H                    -0.93387   2.7406    0.94119 
 H                    -2.74492  -2.912    -0.04982 
 O                     2.49775   1.24671  -1.07736 
 H                     2.60602   1.14836  -0.11912 
 H                     1.64864   0.78994  -1.20916 
 O                     2.39285  -1.89251  -0.5633 
 H                     2.95712  -1.25782  -1.01628 
 H                     1.51496  -1.48165  -0.71137 
 O                     2.36608   0.17407   1.68083 
 H                     1.3892    0.22546   1.73376 
 H                     2.49097  -0.68188   1.25102 
