   22
Isomer: w3s13
 P                     0.59826   0.05916  -0.15147 
 O                    -0.29724  -0.54471  -1.20628 
 O                     0.51923   1.51916   0.19088 
 O                     2.17256  -0.33337  -0.45425 
 O                     0.39348  -0.87294   1.18532 
 C                     1.02775  -0.43388   2.38308 
 C                     2.83285   0.47394  -1.42024 
 H                     0.68047   0.56518   2.66105 
 H                     3.85521   0.09822  -1.5032 
 H                     2.84766   1.52336  -1.10809 
 H                     2.11607  -0.4189    2.25993 
 H                     2.34261   0.39722  -2.39801 
 H                     0.75993  -1.15045   3.16264 
 O                    -2.14723   2.48858   0.71542 
 H                    -2.57724   1.80703   0.18104 
 H                    -1.20859   2.2858    0.56756 
 O                    -2.97304   0.18629  -1.04745 
 H                    -2.0306    0.06357  -1.27305 
 H                    -3.15734  -0.65894  -0.62331 
 O                    -1.80841  -2.59367  -0.07555 
 H                    -1.2491   -2.05102  -0.66263 
 H                    -1.39141  -2.38357   0.76639 
