   22
Isomer: w3s1
 P                    -0.00002   0.23912  -0.00008 
 O                    -1.21665   0.95716  -0.50982 
 O                     1.21648   0.95748   0.50956 
 O                     0.55536  -0.81516  -1.14775 
 O                    -0.55518  -0.81508   1.14778 
 C                     0.42877  -1.54216   1.88146 
 C                    -0.42846  -1.5426   -1.88127 
 H                     1.0387   -2.16186   1.21505 
 H                     0.11075  -2.18262  -2.5833 
 H                    -1.08693  -0.86128  -2.42704 
 H                    -0.11032  -2.18222   2.58354 
 H                    -1.03819  -2.16236  -1.21474 
 H                     1.08704  -0.8606    2.42717 
 O                     3.43264  -0.63376  -0.24005 
 H                     2.78895  -1.01421  -0.84699 
 H                     2.87208   0.05576   0.15734 
 O                    -3.43251  -0.63431   0.24026 
 H                    -2.78869  -1.01455   0.84719 
 H                    -2.87211   0.05524  -0.1573 
 O                    -0.00042   3.63734  -0.00006 
 H                    -0.68162   3.01047  -0.28006 
 H                     0.68096   3.01064   0.27988 
