   22
Isomer: w3s11
 P                    -0.61142  -0.31587   0.25316 
 O                     0.06484  -0.14589   1.5797 
 O                    -0.16472  -1.32792  -0.76642 
 O                    -0.61964   1.13801  -0.54812 
 O                    -2.22023  -0.51802   0.54737 
 C                    -3.03941  -0.7775   -0.58741 
 C                    -1.00268   2.28041   0.21815 
 H                    -2.72236  -1.69246  -1.09653 
 H                    -0.90577   3.1474   -0.43826 
 H                    -0.34831   2.40226   1.08556 
 H                    -2.99811   0.05419  -1.30112 
 H                    -2.04049   2.18671   0.5584 
 H                    -4.06225  -0.88965  -0.21938 
 O                     2.8213    0.13282   0.88455 
 H                     1.93785   0.06966   1.29213 
 H                     2.86924  -0.70579   0.4005 
 O                     2.30571  -2.35262  -0.58152 
 H                     2.10522  -3.0883    0.00057 
 H                     1.40875  -1.97864  -0.75457 
 O                     2.11751   2.1787   -1.0595 
 H                     1.23365   1.80045  -1.1502 
 H                     2.5084    1.57405  -0.40724 
