   22
Isomer: w3s22
 P                    -0.36394  -0.59714  -0.43126 
 O                    -1.0099    0.16893  -1.54349 
 O                     0.82345  -1.49998  -0.60418 
 O                    -1.48846  -1.48578   0.37956 
 O                     0.00987   0.55542   0.72232 
 C                     0.47486   0.07803   1.98445 
 C                    -2.76493  -0.8762    0.55473 
 H                     1.30559  -0.62211   1.85434 
 H                    -3.37469  -1.58205   1.12386 
 H                    -3.23594  -0.66959  -0.41032 
 H                    -0.33439  -0.42114   2.52876 
 H                    -2.68277   0.06608   1.10845 
 H                     0.82169   0.94651   2.54709 
 O                     3.38829  -0.78595  -0.64207 
 H                     2.44239  -1.06263  -0.71739 
 H                     3.75701  -1.45837  -0.06646 
 O                    -2.02793   2.59522  -0.60586 
 H                    -1.76948   1.79093  -1.09598 
 H                    -1.36982   2.57428   0.09456 
 O                     2.66414   1.88259   0.29781 
 H                     3.04451   1.05526  -0.03454 
 H                     1.71969   1.6852    0.26879 
