   22
Isomer: w3s28
 P                    -1.01745  -0.01375   0.01609 
 O                    -0.029     1.00205   0.53521 
 O                    -2.31082   0.36244  -0.62914 
 O                    -1.36055  -1.10236   1.20424 
 O                    -0.12073  -0.96524  -1.01711 
 C                    -0.83888  -1.94025  -1.76507 
 C                    -0.27708  -1.50945   2.03367 
 H                    -1.36439  -2.63514  -1.09944 
 H                    -0.68653  -2.20968   2.76571 
 H                     0.16673  -0.65127   2.54678 
 H                    -0.10586  -2.49109  -2.35963 
 H                     0.50379  -2.00974   1.4489 
 H                    -1.57004  -1.4625   -2.42352 
 O                     2.45199   0.03028  -0.03745 
 H                     1.98112  -0.55752  -0.64005 
 H                     1.69221   0.56403   0.28016 
 O                    -1.87117   3.26118  -0.08264 
 H                    -1.06109   2.83667   0.23293 
 H                    -2.342     2.4752   -0.39407 
 O                     5.14207   0.67895  -0.28483 
 H                     4.17624   0.54251  -0.31278 
 H                     5.35301   0.36443   0.59576 
