   22
Isomer: w3s20
 P                    -0.04413   0.01229  -0.02909 
 O                     1.03178   0.0522   -1.08915 
 O                    -1.00896   1.16765   0.07839 
 O                     0.62584  -0.28594   1.44227 
 O                    -0.85756  -1.41068  -0.11692 
 C                    -1.0924   -1.91722  -1.43005 
 C                     1.10109   0.87298   2.12758 
 H                    -0.14792  -2.10742  -1.94636 
 H                     1.56144   0.52176   3.05291 
 H                     0.27469   1.55205   2.35497 
 H                    -1.69268  -1.21746  -2.0219 
 H                     1.85085   1.40512   1.53153 
 H                    -1.64639  -2.84989  -1.30765 
 O                    -3.49469   0.02729   0.76779 
 H                    -2.7511    0.61087   0.52794 
 H                    -3.03221  -0.81527   0.80602 
 O                     0.67546   2.9344   -1.57573 
 H                    -0.08993   2.69875  -1.03199 
 H                     1.06876   2.05403  -1.66588 
 O                     3.05304  -1.61944  -0.03694 
 H                     2.52242  -1.66955   0.764 
 H                     2.4926   -1.0257   -0.57007 
