   22
Isomer: w3s33
 P                     1.02252   0.14592   0.01896 
 O                     0.33904  -0.1858    1.33055 
 O                     0.65112  -0.65658  -1.20255 
 O                     2.65001   0.13752   0.20389 
 O                     0.89659   1.75368  -0.25321 
 C                    -0.42751   2.27442  -0.13422 
 C                     3.29021  -1.10683  -0.04536 
 H                    -0.7913    2.18439   0.89384 
 H                     4.3589   -0.94622   0.11372 
 H                     3.11009  -1.44182  -1.07108 
 H                    -1.12465   1.75909  -0.80261 
 H                     2.93781  -1.88078   0.64724 
 H                    -0.37468   3.32806  -0.41488 
 O                    -3.84937   0.49772  -0.30745 
 H                    -3.44121   0.18283   0.51046 
 H                    -3.35451  -0.03005  -0.9519 
 O                    -2.1341   -0.97902   1.57583 
 H                    -1.18936  -0.66538   1.49778 
 H                    -2.17197  -1.36263   2.45353 
 O                    -1.97636  -1.49058  -1.3738 
 H                    -2.05342  -1.71484  -0.43833 
 H                    -1.03513  -1.22253  -1.43082 
