   22
Isomer: w3s39
 P                    -1.56329  -0.34326  -0.4795 
 O                    -0.5072   -0.0591   -1.51634 
 O                    -2.58876  -1.41888  -0.56084 
 O                    -2.35776   1.06485  -0.12973 
 O                    -0.67191  -0.5269    0.93441 
 C                    -1.40059  -0.89831   2.09754 
 C                    -1.56914   2.24763  -0.08833 
 H                    -2.1882   -0.16732   2.31542 
 H                    -2.24268   3.06928   0.16848 
 H                    -1.09959   2.44108  -1.05746 
 H                    -0.69072  -0.92486   2.92866 
 H                    -0.78281   2.17444   0.67301 
 H                    -1.86198  -1.8821    1.96927 
 O                     4.33402   1.35293   0.68154 
 H                     4.66469   0.4811    0.43786 
 H                     3.42131   1.28716   0.36835 
 O                     1.81483   0.16698  -0.24125 
 H                     1.08877   0.16049  -0.9136 
 H                     1.28048  -0.0772    0.52889 
 O                     4.05949  -1.36986  -0.58098 
 H                     3.19791  -0.90425  -0.54859 
 H                     3.8189   -2.28508  -0.42767 
