   22
Isomer: w3s49
 P                    -1.15518  -0.06293   0.20015 
 O                    -0.21774   0.09144   1.36642 
 O                    -0.5919   -0.09211  -1.20266 
 O                    -2.35235   1.08021   0.25656 
 O                    -2.10211  -1.36634   0.47342 
 C                    -3.024    -1.71946  -0.55011 
 C                    -1.96502   2.38377  -0.1525 
 H                    -2.51157  -1.8525   -1.50812 
 H                    -2.83823   3.02975  -0.03356 
 H                    -1.64354   2.38678  -1.19964 
 H                    -3.79526  -0.94904  -0.65939 
 H                    -1.14955   2.7672    0.47258 
 H                    -3.48998  -2.65943  -0.24559 
 O                     4.00183  -1.68653   0.05149 
 H                     3.709    -2.23324   0.78302 
 H                     3.2266   -1.10849  -0.1077 
 O                     2.0279    0.20502  -0.23352 
 H                     1.44394   0.23884   0.55419 
 H                     1.32891   0.10505  -0.90795 
 O                     4.76249   1.23493  -0.16925 
 H                     4.95773   0.30241  -0.02409 
 H                     3.79867   1.19786  -0.24993 
