   22
Isomer: w3s45
 P                     1.14623  -0.09322  -0.07529 
 O                     0.79291  -1.2149    0.8732 
 O                     0.20305   0.3302   -1.17718 
 O                     2.60709  -0.40365  -0.80008 
 O                     1.53165   1.21676   0.87039 
 C                     1.74993   2.46612   0.22308 
 C                     3.63473  -0.99208  -0.00995 
 H                     0.88687   2.74605  -0.39202 
 H                     4.4708   -1.20669  -0.68526 
 H                     3.28711  -1.92005   0.45862 
 H                     2.64363   2.43173  -0.4163 
 H                     3.97474  -0.30398   0.77737 
 H                     1.90104   3.2108    1.0128 
 O                    -3.746    -0.47936   1.02585 
 H                    -3.03211  -0.93185   0.48947 
 H                    -3.26079   0.15768   1.57128 
 O                    -1.71628  -1.59033  -0.3852 
 H                    -1.29617  -0.88459  -0.93017 
 H                    -0.97301  -1.76705   0.237 
 O                    -5.66306   0.84602  -0.53164 
 H                    -5.04068   0.3409    0.04601 
 H                    -5.1378    1.04324  -1.32089 
