   22
Isomer: w3s52
 P                    -1.45968   0.07463  -0.03296 
 O                    -0.98993  -0.42818   1.31203 
 O                    -0.47248   0.04573  -1.17793 
 O                    -2.1152    1.57598   0.07877 
 O                    -2.8654   -0.67283  -0.43373 
 C                    -2.90417  -2.06906  -0.17114 
 C                    -1.20447   2.65263  -0.09145 
 H                    -2.78795  -2.27022   0.89807 
 H                    -1.78061   3.5736    0.02367 
 H                    -0.7415    2.62259  -1.08234 
 H                    -2.11617  -2.60013  -0.719 
 H                    -0.41429   2.63109   0.66945 
 H                    -3.87777  -2.4265   -0.51421 
 O                     5.94326  -0.19128  -0.84141 
 H                     5.25238  -0.05843  -0.16686 
 H                     5.43924  -0.5478   -1.57509 
 O                     3.83316   0.18242   0.97923 
 H                     3.00249  -0.30988   0.76479 
 H                     3.5182    1.07763   1.11963 
 O                     1.55952  -1.08308   0.34489 
 H                     1.08157  -0.72653  -0.43093 
 H                     0.82792  -1.01634   0.98794 
