  13
   W4Br
Br      -1.5121790000     -0.0000010000     -0.0000670000
H        1.6692210000     -1.7418980000      0.5511040000
O        1.3865760000     -2.1646910000     -0.2454670000
H        0.4707020000     -1.9320610000     -0.3055830000
H        0.4704040000     -0.3052400000      1.9305880000
O        1.3861550000     -0.2456890000      2.1639090000
H        1.6694890000      0.5509530000      1.7417320000
H        1.6696320000     -0.5509780000     -1.7414180000
O        1.3865060000      0.2456450000     -2.1637760000
H        0.4706940000      0.3053160000     -1.9307360000
H        1.6693080000      1.7419010000     -0.5509230000
O        1.3865310000      2.1647330000      0.2455800000
H        0.4706670000      1.9320370000      0.3056010000
