12
Configuration: VI.com
 O                  0.42175903   -0.14467301    0.68693605
 H                  1.31286610   -0.02559300    0.33277703
 H                 -0.03535300    0.69029705    0.51588704
 O                 -1.84552414    1.44066211   -0.04968000
 H                 -2.16839817    1.95715515   -0.79031106
 H                 -2.14396416    0.53531804   -0.23389602
 O                  3.12942024    0.11756501   -0.28866902
 H                  3.43551726   -0.44002203   -1.00847408
 H                  3.82359629    0.05209900    0.37210003
 O                 -1.83926914   -1.35756410   -0.29109602
 H                 -0.94540407   -1.19255209    0.06198200
 H                 -2.20994617   -2.02462415    0.29001402
