12
Configuration: VII.com
 O                  0.40339103    0.11269801    0.79095706
 O                 -1.77022413    1.38304811   -0.30576202
 O                 -1.77210714   -1.43325411   -0.20797202
 O                  3.06765623   -0.12649401   -0.29547102
 H                  1.29137510   -0.01019800    0.42949203
 H                 -0.06412401   -0.71256905    0.60220605
 H                 -2.13548116    2.08805816    0.23206802
 H                 -0.90710907    1.18329209    0.10279801
 H                 -2.53622319   -1.93190315    0.08671001
 H                 -2.10092516   -0.52955804   -0.33722503
 H                  3.80512429    0.21863002    0.21402702
 H                  3.21763924    0.20626802   -1.18409109
