  18
   Water hexamer DOI:10.1021/jp103683m
O       -2.3255330000      0.3293670000      0.9216200000
O       -0.8914360000      2.3235630000     -0.2642990000
O        1.5723650000      1.2735220000     -0.7146240000
O        2.4348810000     -0.4620420000      1.3253200000
O        0.9992050000     -1.6179180000     -0.8449460000
O       -1.6673060000     -1.9413360000     -0.4294770000
H       -3.2593850000      0.3302680000      1.1399840000
H       -2.1646890000     -0.5357640000      0.4915260000
H       -1.4384940000      2.6355360000     -0.9886320000
H       -1.4514010000      1.6577310000      0.1860830000
H        0.6990430000      1.7031680000     -0.5869620000
H        2.1171380000      1.9441760000     -1.1332600000
H        2.1551580000     -0.2352860000      2.2146420000
H        2.2150820000      0.3193190000      0.7930340000
H        1.4993250000     -1.5639270000     -0.0155240000
H        1.1767810000     -0.7459490000     -1.2212710000
H       -0.7034910000     -1.8862130000     -0.6090690000
H       -1.8224630000     -2.8643060000     -0.2193050000
