  18
   Water hexamer DOI:10.1021/jp103683m
O        0.8974000000     -1.2851110000      1.3756740000
H        0.9336600000     -1.6202490000      0.4612910000
H        1.5384240000     -0.5632700000      1.3259810000
O       -1.5592180000     -0.2417780000      1.4234740000
H       -2.0641020000     -0.5019660000      2.1974640000
H       -0.6776560000     -0.6786460000      1.5252370000
O        2.0907890000      0.9844520000     -0.0456930000
H        1.2585680000      1.4984210000     -0.0186460000
H        2.7882160000      1.6420980000     -0.0938860000
O       -0.4470320000      2.0212600000      0.0121140000
H       -0.9039980000      1.5399850000      0.7169090000
H       -0.9110810000      1.7004720000     -0.7710560000
O       -1.7766810000     -0.2114110000     -1.3511760000
H       -2.5606980000     -0.5161790000     -1.8140610000
H       -1.9498010000     -0.3872420000     -0.4095300000
O        0.9244000000     -1.3394050000     -1.4323950000
H        0.0446260000     -0.9923990000     -1.6352670000
H        1.4665810000     -0.5450870000     -1.3404100000
