  18
   Water hexamer DOI:10.1021/jp103683m
O        2.2948350000     -1.1200930000      0.0797130000
H        2.7679760000     -1.6882620000     -0.5315820000
H        1.3905360000     -1.5075400000      0.1377810000
O       -0.2562690000     -1.9630300000      0.2044010000
H       -0.7302110000     -1.5053730000      0.9155890000
H       -0.7245250000     -1.6442500000     -0.5841480000
O        1.9149740000      1.5383410000     -0.0904880000
H        2.1291690000      0.5782460000     -0.0865990000
H        2.4659670000      1.9046990000      0.6047060000
O       -0.7539340000      1.8033470000     -0.1922470000
H       -0.9567800000      2.7192670000     -0.3986340000
H        0.2311410000      1.7703700000     -0.1524650000
O       -1.6683670000     -0.0310480000      1.7712240000
H       -1.4162680000      0.7308590000      1.2256930000
H       -1.6006170000      0.2823380000      2.6753320000
O       -1.5022600000     -0.4312120000     -1.8218410000
H       -1.3497840000      0.4187680000     -1.3790830000
H       -2.4384350000     -0.4295520000     -2.0326810000
