  18
   Water hexamer DOI:10.1021/jp103683m
O       -0.8567230000     -1.4411230000      1.5698160000
H       -1.4790050000     -2.1716180000      1.5521920000
H       -0.4375820000     -1.4595380000      0.6938250000
O        1.0779010000      1.6054020000      0.0609800000
H        0.1979090000      1.6257510000      0.5079690000
H        1.2022200000      2.4883760000     -0.2953600000
O        3.0987610000     -0.4206950000     -0.1800940000
H        3.7142810000     -0.6463120000      0.5201020000
H        2.6136800000      0.3442430000      0.1602240000
O       -2.2983360000     -0.0877150000     -1.3776290000
H       -2.6763680000      0.0911220000     -2.2411250000
H       -1.4539660000     -0.5254550000     -1.5607910000
O        0.3558990000     -0.9119150000     -0.9780650000
H        0.6195100000      0.0064090000     -0.7938140000
H        1.2167950000     -1.3358550000     -1.0794790000
O       -1.4072200000      1.2721320000      1.0084060000
H       -1.3648760000      0.4293730000      1.4882550000
H       -1.9148530000      1.0248130000      0.2206880000
