  18
   Water hexamer DOI:10.1021/jp103683m
O       -1.7482510000     -2.0614740000      0.1686410000
H       -0.7946020000     -2.2309230000      0.0243490000
H       -1.9646180000     -2.5730320000      0.9509280000
O        0.9111330000     -2.5443030000     -0.1693410000
H        1.2456100000     -2.9872070000     -0.9519190000
H        1.5351270000     -1.8035610000     -0.0247280000
O       -0.9111650000      2.5446090000      0.1681680000
H       -1.2454010000      2.9878710000      0.9506520000
H       -1.5351490000      1.8036980000      0.0242690000
O        2.6596700000     -0.4833420000      0.1693880000
H        3.2105680000     -0.4152530000      0.9519010000
H        2.3299150000      0.4274140000      0.0251530000
O       -2.6596480000      0.4832840000     -0.1680490000
H       -2.3298020000     -0.4274730000     -0.0241570000
H       -3.2113890000      0.4152500000     -0.9499830000
O        1.7482870000      2.0612290000     -0.1688250000
H        1.9650090000      2.5725220000     -0.9511940000
H        0.7945270000      2.2306630000     -0.0251310000
