  16
      file 'w5s1.log' was gotten at: ---' #p mp2=full gen pseudo=Read opt freq'---
H       -3.0911102727      1.7744491343     -0.5517650151
O       -2.9612380747      0.8170456236     -0.5387994859
H       -3.8770986351      0.2579441585     -0.3107458877
H        3.0614460545     -1.7565751043     -0.5014396369
O        2.8546006501     -0.8146145836     -0.4308499584
H        3.7508433584     -0.2115287438     -0.2803076601
H       -5.3988789001     -0.8875687620     -0.8502445367
O       -4.9419652925     -0.4958532506     -0.0958440094
H       -5.6132936454     -0.2520689863      0.5525231103
H       -0.8049116600      0.2168576334      1.6997132497
O       -0.7446516863      0.2112241236      0.7329543579
H       -2.1399298431      0.5778959398     -0.0210404666
H        5.2585258045      0.9136062927     -0.9191755998
O        4.7864179578      0.6102158266     -0.1335198722
H        5.4468739930      0.4586521907      0.5538187763
Hg       1.0445111916     -0.3139904926      0.2129316348
