  16
      file 'w5s2.log' was gotten at: ---' #p mp2=full gen pseudo=Read opt freq'---
H       -5.5240509719     -0.8958084257      0.4753818291
O       -4.8546005219     -0.7147063808     -0.1950959423
H       -5.2745912929     -0.8203182045     -1.0575205968
H        3.3422339358      1.5007599614     -0.1086713692
O        2.8646118907      0.6886210999     -0.3265595054
H        3.5443545095     -0.1399168424     -0.5264299724
H       -3.9512758156      0.2365745208     -0.0344547470
O       -3.1610638409      0.9955227273      0.0267383180
H       -3.4591044735      1.8262860839      0.4200205819
H        4.6115097673     -1.3053663654     -1.7304431805
O        4.2933227414     -1.1991027914     -0.8250994407
H        5.0049226616     -1.4848235671     -0.2389143201
H       -2.2855634824      0.7122066916      0.4174130358
O       -0.8110240282      0.3058060040      0.9800265571
H       -0.8207171107     -0.0762286480      1.8701210143
Hg       1.0235970319      0.4845911363      0.3885597385
