  19
      file 'w6s1.log' was gotten at: ---' #p mp2=full gen pseudo=Read freq'---
Hg      -0.0000050000      0.1296920000      0.0000320000
O        5.8547490000      0.4200030000     -0.3539240000
H        6.5058780000      0.7180840000      0.2904880000
H        6.3180440000      0.3213040000     -1.1932450000
O       -5.8548120000      0.4198610000      0.3538800000
H       -6.5059500000      0.7180230000     -0.2904860000
H       -6.3181050000      0.3210780000      1.1931910000
O       -3.9313990000     -1.0298790000     -0.1280850000
H       -4.1355720000     -1.7731470000     -0.7100530000
H       -4.7748910000     -0.4165440000      0.0367010000
O        3.9314930000     -1.0299280000      0.1278440000
H        4.7749780000     -0.4165000000     -0.0368500000
H        4.1356990000     -1.7733370000      0.7096170000
O        1.7820880000      0.0879540000      0.7935940000
H        3.0705570000     -0.5495600000      0.4206150000
H        1.8286000000      0.6872190000      1.5504020000
O       -1.7820870000      0.0881810000     -0.7935770000
H       -3.0704520000     -0.5493890000     -0.4207250000
H       -1.8286690000      0.6878250000     -1.5500800000
