  19
      file 'w6s4.log' was gotten at: ---' #p mp2=full gen pseudo=Read freq'---
Hg      -0.5435310000     -0.0679550000     -0.1618670000
O        1.1767960000      3.0516720000      0.0797060000
H        1.5480270000      3.5497120000     -0.6559230000
H        1.1508360000      3.6721890000      0.8154770000
O       -2.3759640000     -0.6939450000     -0.6351960000
H       -3.2297320000     -0.5700230000     -0.0036030000
H       -2.6253050000     -0.7211390000     -1.5684540000
O        1.2458060000      0.4471060000      0.3254220000
H        1.3078480000      1.4412580000      0.2535260000
H        2.4344590000     -0.3412210000      0.7284890000
O       -4.2591910000     -0.4558430000      0.8927690000
H       -4.9294750000      0.2328820000      0.8111950000
H       -4.7120990000     -1.2510090000      1.1986890000
O        3.2154870000     -0.9410590000      1.0267930000
H        4.0850370000     -0.9251570000      0.4271630000
H        3.4201540000     -0.8178610000      1.9624680000
O        5.1911790000     -0.9835720000     -0.4311210000
H        5.9482180000     -0.3916660000     -0.3623540000
H        5.5316280000     -1.8364140000     -0.7243200000
