    112
Chemical Component 0ZD, taken from http://ligand-expo.rcsb.org/reports/0/0ZD/index.html
O        -16.202  18.781 -35.336     
C        -16.663  19.920 -35.553     
O        -16.903  20.277 -36.716     
C        -16.953  20.857 -34.410     
C        -18.450  20.786 -34.033     
C        -18.804  21.710 -32.879     
C        -19.029  19.391 -33.818     
N        -15.967  20.685 -33.315     
S        -14.862  21.721 -33.178     
O        -15.375  23.018 -33.550     
C        -13.666  21.295 -34.178     
C        -13.608  21.787 -35.489     
C        -12.580  21.412 -36.358     
C        -11.556  20.555 -35.938     
C        -10.438  20.173 -36.850     
C         -9.924  18.877 -36.889     
C         -8.871  18.564 -37.754     
C         -8.316  19.542 -38.575     
C         -8.806  20.842 -38.528     
C         -9.865  21.147 -37.670     
C        -11.595  20.071 -34.623     
C        -12.639  20.435 -33.755     
O        -14.303  21.712 -31.839     
C        -15.913  19.409 -32.579     
C        -16.273  19.461 -31.104     
N        -16.036  18.123 -30.578     
C        -16.798  17.063 -30.835     
O        -17.843  17.161 -31.482     
C        -16.400  15.716 -30.280     
C        -17.287  14.645 -30.364     
C        -16.928  13.402 -29.843     
C        -15.687  13.222 -29.239     
C        -15.155  15.529 -29.668     
C        -14.789  14.283 -29.148     
C        -13.449  14.069 -28.495     
O        -13.253  13.028 -27.868     
N        -12.488  14.993 -28.605     
C        -11.210  14.876 -27.900     
C        -11.412  15.375 -26.475     
N        -10.222  15.420 -25.603     
C        -10.014  14.395 -24.551     
C        -11.099  14.469 -23.506     
O        -10.828  14.180 -22.324     
O        -12.261  14.798 -23.804     
C         -9.827  12.933 -24.999     
C         -8.739  12.773 -26.054     
C        -11.107  12.190 -25.375     
S         -9.378  16.690 -25.588     
O         -8.025  16.425 -25.183     
O         -9.451  17.315 -26.887     
C        -10.049  17.691 -24.490     
C         -9.657  17.722 -23.139     
C        -10.253  18.590 -22.217     
C        -11.067  18.572 -24.877     
C        -11.666  19.442 -23.963     
C        -11.271  19.457 -22.619     
C        -11.886  20.424 -21.661     
C        -13.250  20.714 -21.686     
C        -13.791  21.636 -20.787     
C        -12.965  22.295 -19.879     
C        -11.601  22.028 -19.863     
C        -11.066  21.100 -20.749     
H        -16.095  18.320 -36.160     
H        -16.797  21.872 -34.805     
H        -18.985  21.191 -34.905     
H        -19.877  21.620 -32.653     
H        -18.217  21.430 -31.992     
H        -18.574  22.749 -33.157     
H        -20.094  19.472 -33.556     
H        -18.922  18.803 -34.742     
H        -18.488  18.891 -33.001     
H        -14.372  22.468 -35.834     
H        -12.575  21.789 -37.370     
H        -10.341  18.113 -36.249     
H         -8.485  17.556 -37.786     
H         -7.508  19.291 -39.246     
H         -8.371  21.610 -39.150     
H        -10.248  22.156 -37.640     
H        -10.815  19.411 -34.273     
H        -12.652  20.047 -32.747     
H        -16.609  18.711 -33.068     
H        -14.887  19.020 -32.659     
H        -15.639  20.193 -30.583     
H        -17.330  19.737 -30.979     
H        -15.244  17.992 -29.981     
H        -18.251  14.777 -30.832     
H        -17.618  12.573 -29.909     
H        -15.419  12.255 -28.839     
H        -14.467  16.359 -29.596     
H        -12.648  15.790 -29.188     
H        -10.887  13.825 -27.885     
H        -10.448  15.487 -28.405     
H        -11.817  16.396 -26.536     
H        -12.150  14.716 -25.995     
H         -9.081  14.668 -24.037     
H        -11.610  14.261 -21.790     
H         -9.444  12.411 -24.110     
H         -7.840  13.323 -25.740     
H         -8.494  11.707 -26.170     
H         -9.098  13.173 -27.014     
H        -11.860  12.334 -24.587     
H        -11.493  12.583 -26.327     
H        -10.890  11.117 -25.483     
H         -8.874  17.057 -22.804     
H         -9.924  18.589 -21.188     
H        -11.396  18.579 -25.906     
H        -12.444  20.112 -24.297     
H        -13.891  20.223 -22.404     
H        -14.852  21.838 -20.796     
H        -13.384  23.012 -19.189     
H        -10.958  22.541 -19.163     
H        -10.005  20.898 -20.734     
