19
    file 'w6s7_re-opt.log' was gotten at: ---' #p mp2=full gen pseudo=Read freq geom=checkpoint'---
Hg      0.1234224762    -0.4931492698    -0.7943527393
O      -1.7847158786    -0.2319547157     0.7107966723
H      -2.6119477054    -0.7230784969      0.632301381
H      -1.7280052766     0.0095089896     1.6435406516
O      -1.3578951909    -1.0055200547    -2.1848368155
H      -1.6809320033     -0.222052755    -2.6596078456
H       -1.278490369    -1.7392459461    -2.8129710874
O       2.5305552119    -2.5326002324     1.2928725709
H        2.546163173    -2.6888153138     2.2440014281
H       3.2421468101    -3.0697029905     0.9272495684
O       3.3756096109     1.4214323647     -0.256821376
H       4.1760760084     1.2742319479    -0.7730925577
H       3.5999588829     2.1101259756     0.3796556344
O      -0.8982733866     1.6251751088    -1.6047002793
H      -1.5393829462      2.055564683    -1.0245141184
H      -0.4978329434     2.3419504196    -2.1134251126
O       1.7085614426    -0.3334200957     0.4140141406
H       2.1075732912    -1.2174894404      0.754690289
H       2.4350618014     0.3376783915     0.1390110336
