7
    file 'w2s1.log' at: ---' #p B2PLYPD3 gen pseudo=Read opt freq'---
Hg     -0.0001287836    -0.0125058155     -0.000595178
O       2.0391438227    -0.0664754436     0.0563990477
H       2.5624248911     0.6202602583     0.5111369119
H       2.5647926682    -0.4596534645    -0.6658417254
O      -2.0394683907    -0.0620152286    -0.0632008165
H      -2.5625583507     0.6634994728    -0.4534575658
H      -2.5649068569    -0.5185427787      0.620978326
