10
    file 'w3s3.log' at: ---' #p B2PLYPD3 gen pseudo=Read opt freq'---
Hg      0.3886261294    -0.0531981724    -0.0000715538
O       2.3283698153     0.6459774322    -0.0001276117
H       2.8894916969     0.5974978882    -0.7922036247
H       2.8895326153     0.5975242282     0.7919209919
O       -1.505133155    -0.6093314683     0.0000377898
H      -2.8038094503     0.0765416849      0.000044494
H      -1.5684575452     -1.576641121    -0.0000072471
O      -3.7051482668     0.6064379218    -0.0001633888
H      -4.2460183571     0.4935171354    -0.8013230635
H      -4.2462664826      0.493710471      0.800855214
