13
    file 'w4s1.log' at: ---' #p B2PLYPD3 gen pseudo=Read opt freq'---
H         1.43589296    -0.2410822285    -2.5298213477
O       1.5898177901     -0.213410987    -1.5749860476
H        2.426304769     -0.667484588    -1.4011611411
H      -2.6584789167     -0.909445239     0.5216864194
O      -2.1830671815    -0.3208017513     -0.082459259
H      -2.6963080573    -0.2666540245    -0.9017723259
H        1.242311371    -1.9456248719     1.8362671124
O       1.2852478072    -1.0121251789     1.5863804858
H       1.6356633809     -0.529514765     2.3482707498
H      -0.5569029488     2.7235299002     0.9120673961
O       0.1598290481     2.1919568255     0.5400457258
H       0.8062453446      2.805448867     0.1652641142
Hg      0.0035921028    -0.0189178795    -0.0060913871
