13
    file 'w4s2.log' at: ---' #p B2PLYPD3 gen pseudo=Read opt freq'---
H       3.8004816531     0.0868550317    -0.7959510258
O       3.2738300956    -0.1042561345     -0.002224409
H       3.8015945552     0.0892141517     0.7901903465
H      -1.2835379263     0.9169125389     0.0000031847
O      -0.7464369132    -0.0098506522     0.0006209602
H      -1.2941092251    -0.9322635237     0.0016448066
H      -2.3670155588     2.4751216061     0.7767585833
O      -1.8963138857     2.1501976186    -0.0009354983
H      -2.3680079325     2.4734829472     -0.778711211
H      -2.3849935233    -2.4803903407     0.7821659982
O      -1.9142339541    -2.1582312841     0.0033474867
H      -2.3866807107    -2.4817653933    -0.7738770234
Hg      1.2169773256    -0.0249865656    -0.0008921987
