13
    file 'w4s4.log' at: ---' #p B2PLYPD3 gen pseudo=Read opt freq'---
H       3.4716768004    -2.9186015327    -0.1232217608
O        3.197443985    -2.1505094994      0.400183012
H       3.9756822057    -1.7516932856      0.817714291
H      -3.2393937963    -0.1434071003     0.0279761618
O      -2.1388618477     0.1737205797     0.5263652638
H      -2.2030619411     0.8034678146      1.257005692
H      -4.7633440786     0.2098975981    -0.8869355763
O      -4.2308139123    -0.4786099832    -0.4610293502
H      -4.8070167428    -1.0466669355     0.0722706649
H       1.9118838176    -0.1459304877    -1.3424480578
O       1.5857361456     -0.676317102    -0.6029496514
H       2.4449505963    -1.4288534108    -0.0965291103
Hg     -0.2699764468    -0.2222090062    -0.0385158791
