16
    file 'w5s2.log' at: ---' #p B2PLYPD3 gen pseudo=Read opt freq'---
H      -5.5587801038    -0.9208129535     0.4535232615
O      -4.8981000966    -0.7074960158    -0.2162367329
H      -5.3096082674    -0.8090326564    -1.0832381669
H       3.3854202929     1.5155166289    -0.1263354601
O       2.9044433483     0.7046890893    -0.3389809513
H       3.5704107127     -0.115014526     -0.530939139
H      -3.9766521388     0.2414714141    -0.0294115452
O      -3.1880082853     0.9957563716      0.055370139
H      -3.4862674611      1.829911139     0.4414648226
H       4.6494188216    -1.3401659803    -1.7380264709
O       4.3458159525     -1.206724055    -0.8315691051
H       5.0500162402    -1.5062599587     -0.243807008
H      -2.3068345533     0.7107930847     0.4354655544
O      -0.8294572733     0.3095832729     1.0026360146
H      -0.8410882898    -0.0791563022     1.8882622941
Hg      1.0318321014      0.491038447     0.3968944935
