16
    file 'w5s5.log' at: ---' #p B2PLYPD3 gen pseudo=Read opt freq'---
Hg     -0.8506531446    -2.6842466309     0.7471669541
O       0.7597594935      -3.73396888     2.2742393294
H       1.2228419481    -4.5698924658     2.1438301009
H       1.0573977262    -3.3943048636     3.1264482609
O      -2.3402928539    -2.6712755761     2.1390874702
H      -2.7371178015    -3.5726943084     2.5830122023
H      -3.0372460672    -2.0100204922      2.026101726
O      -3.1681092144    -4.7206587669     3.1795334605
H      -3.9537578589      -5.18531772     2.8649838017
H      -3.1687985665    -4.7764612242     4.1435123055
O       0.4863334771    -2.5976692176    -0.7896090933
H       0.1208002039    -2.5660410683     -1.684680989
H       1.4095946036     -2.039531788    -0.7339598094
O       2.6004582363    -1.3868645195    -0.6096132484
H       3.4185442832    -1.8639093372    -0.7981103315
H       2.7141705348    -0.4841541415    -0.9325301401
