16
    file 'w5s9.log' at: ---' #p B2PLYPD3 gen pseudo=Read opt freq'---
Hg      0.4843618829    -0.2030513723     0.0628639226
O      -2.9463171748     -2.061549302    -0.1432873643
H       -3.448545018    -2.4504087545     0.5829228013
H      -3.4387800139    -2.2368475183    -0.9535721992
O      -1.5265571977    -0.0865306921     0.2879403851
H      -1.9057632509      0.825915648     0.1246335061
H      -2.1647506469    -0.8916083839     0.0677706792
O       2.5325848255    -0.6813342304    -0.0484270724
H       2.8933259452    -1.4495982479     0.4218175118
H       3.0224422964     -0.574978426    -0.8789389073
O       0.7070894167     2.1530879846     -0.114333974
H      -0.1136189077     2.6698492334    -0.1012694303
H         1.44323963     2.7562116869      0.043344787
O       -2.163509927     2.4365837817    -0.0385098347
H      -2.5936604951     2.8685422008     0.7118250564
H      -2.6289243649     2.7641273917    -0.8195668671
