19
    file 'w6s18.log' at: ---' #p B2PLYPD3 gen pseudo=Read opt freq geom=(nocrowd, newdefinition)'---
H       3.8745774668    -1.7226087219     0.7446429692
O       3.2291878308    -1.7487781994     0.0297901008
H       3.6648285941    -2.1764882047    -0.7162232435
H       2.1643176813     -0.721542612     -0.201146058
O       1.3715848455    -0.1039102393    -0.4043795419
H        1.609385503     0.8574475021    -0.3639138273
H      -2.0101676752    -1.8691857402     2.3401232149
O      -2.1281792312     -1.364427946     1.5229148945
H      -2.8326701331    -1.7750884882     1.0001805689
H        2.146815631      3.036178247     0.2875479217
O       1.5605483863     2.5677476609    -0.3206060765
H       1.6814407104     3.0073170882    -1.1725497307
H      -0.3235967966     2.3927053442     0.2746863203
O      -1.0586211625      1.784103095     0.4580518406
H      -1.7028228803     2.2485166287      1.004718454
H      -2.7610651905    -0.2805501147    -1.6832932784
O      -2.2427551695    -0.9986521345    -1.2977317399
H      -2.1567991547     -1.661259925    -1.9952573125
Hg     -0.5126492557    -0.5252232403     0.3605845238
