19
    file 'w6s12.log' at: ---' #p B2PLYPD3 gen pseudo=Read opt freq geom=(nocrowd, newdefinition)'---
H      -3.6514094525     2.6527014737    -0.8735455177
O      -3.1589641686     2.4603275059    -0.0679078689
H      -3.6548624441     2.8490797238     0.6617733733
H       2.5127788102     2.1814935081    -0.0232757058
O       2.2676495677     1.2639725128    -0.2005079256
H       3.0840355111     0.6101219866    -0.0535802576
H      -2.0536919015    -0.4216703434     0.1709715431
O      -1.6803986125     0.4892797139     0.3369806652
H      -2.3329124161     1.2651122941     0.1349880098
H      -0.3454527254    -2.2150781287    -0.0994583086
O       0.4759055772    -1.7008737021    -0.1112474346
H       1.2085760209    -2.3183125784    -0.2082055863
H       4.6553685873    -0.3907823816     0.8686714867
O        4.129476956    -0.3321225045     0.0613942184
H       4.7426172026    -0.4289305256    -0.6782509372
H      -2.7842150338    -2.4579634436      0.772879487
O      -2.3690828555    -2.0309197105     0.0121282105
H      -2.8586056949    -2.3486069748    -0.7574171755
Hg      0.3166290719     0.7124715739      0.053011724
