19
    file 'w6s14.log' at: ---' #p B2PLYPD3 gen pseudo=Read opt freq geom=(nocrowd, newdefinition)'---
Hg      0.1056855681      0.159707031    -0.2678348237
O      -3.0799316244    -1.3275489264     1.4306690896
H      -3.4936046636    -2.1865918476     1.2719019245
H      -3.5479316336    -0.9545389764     2.1893390847
O       1.0525790717     1.6833197098    -1.3352137253
H       1.5985003786      2.442729288    -0.8808019145
H       1.4912878106     1.3784249008    -2.1408923511
O      -0.4930884688    -1.2325810285     1.2093157227
H      -1.4767520889    -1.2988943234     1.4120596166
H       0.0245656346    -1.3565357209     2.0154732112
O       0.6305271588    -1.1621314383    -2.2728943409
H       1.2977418368    -1.8574656084    -2.3275896523
H      -0.0344680408    -1.3866747337    -2.9352706055
O      -2.2254028162     0.3172338531    -0.7888646691
H      -2.8822672654     -0.096888455     -0.209100415
H      -2.6762453538     0.9955976729     -1.304510509
O       2.2547989426     3.5376656427    -0.1832654419
H       3.2037517325     3.5652976008     -0.015921232
H       1.9751950891     4.4465678883     -0.343680713
