19
    file 'w6s19.log' at: ---' #p B2PLYPD3 gen pseudo=Read opt freq geom=(nocrowd, newdefinition)'---
Hg      0.2291394887     0.0228274568    -0.0342914416
O       1.7402090052    -0.6266329314    -1.6784528984
H       1.6406089421      -0.50394098    -2.6309132624
H        2.318184249    -1.3899395833     -1.553429628
O      -1.4206027309     1.5601389305     0.0469477976
H      -1.3821366027     2.4280231402    -0.3717703599
H      -2.3456544009     1.2280077967     0.0114325938
O       -3.723269434     0.1064610872     0.0608465609
H      -4.3685389864     0.1475965363    -0.6569962374
H      -4.2493618247     0.1091545232     0.8714344648
O       1.3188097493     -1.329105831     1.5146222819
H       0.8705121852    -2.0176683752     2.0214830723
H       2.0333154157     -0.992498943     2.0696686917
O      -1.4916986139    -1.5162559819    -0.0515018376
H      -2.4019739697    -1.1541474044    -0.0550114071
H      -1.4957798677    -2.3505806197    -0.5351752828
O       1.8563100902     1.6256782109     0.5372092485
H       2.6091484595     1.8337908317    -0.0296296745
H       1.7469288458     2.3682711365     1.1439903184
