19
    file 'w6s13.log' at: ---' #p B2PLYPD3 gen pseudo=Read opt freq geom=(nocrowd, newdefinition)'---
Hg     -0.1102336064    -0.0959956787     0.1257026197
O       3.0106916675    -2.1081393779    -1.3667813841
H       3.4900096904    -2.8543886112     -0.988211022
H       3.4462497305    -1.8938119126    -2.1995534277
O      -0.3437888146    -0.5090003146     2.5243754591
H       0.3271401275    -0.9292831822     3.0752411617
H      -1.1771387421    -0.6110524898     2.9990127729
O      -3.1782864767    -1.8339923916    -1.6668952768
H      -3.3870385999    -1.7355765556    -2.6030409211
H      -3.8591938097    -2.4026816151    -1.2883404225
O       0.5228438442     2.1906620132     0.8187805771
H       0.5924656161      3.002127654     0.3013824793
H       0.4386875714     2.4691527099     1.7388245336
O       1.9439904108    -0.4522728032     0.1655991054
H       2.4173820921    -1.1024247703    -0.4913777723
H       2.4750847398     0.3445584332     0.2970788528
O      -2.1565571744    -0.0656744087    -0.2505337034
H      -2.6043368283    -0.7719367041    -0.8760528174
H      -2.5702090884     0.7980795955     -0.376781424
