19
    file 'w6s21.log' at: ---' #p B2PLYPD3 gen pseudo=Read opt freq geom=(nocrowd, newdefinition)'---
Hg      0.0896048572     0.0755689704     0.0800980445
O       -1.093067483     1.8253369751     -1.006611248
H      -1.7032435707     1.7525757759    -1.7508525218
H      -1.4072875685     2.5612262698    -0.4665625828
O      -1.8185391007    -1.2389136758       0.60188162
H      -2.6062692871    -0.9690525865     1.0899007469
H      -2.1098433852    -1.8898786232    -0.0487422676
O       0.1371692728     1.7251045059     1.7880438181
H      -0.2265290224     1.6628376554     2.6798686975
H       0.9191283739     2.2877470674     1.8504407372
O       0.2842428088    -1.6086999957    -1.5830297835
H        0.858499764    -2.3621099256    -1.3972272951
H       0.2836457069    -1.4954242646    -2.5415042787
O       1.1129377219    -1.6466070935     1.3562224115
H       0.5403935928    -2.2225613573     1.8781349024
H        1.961850441    -1.6173481296      1.814481402
O       1.9130686876      1.396895097    -0.6749998383
H       2.8273970151     1.1193240397    -0.8108966947
H       1.7336315058     2.0788294048    -1.3343096696
