19
    file 'w6s22.log' at: ---' #p B2PLYPD3 gen pseudo=Read opt freq geom=(nocrowd, newdefinition)'---
Hg      0.6189841749    -0.3670990869    -0.0353470861
O      -0.5600483677    -1.9827222804     0.6309871587
H      -0.4688356226    -2.8390208921     0.1927196231
H      -1.5651200299    -1.7464563875     0.7796380052
O       1.6534863559     0.8880748892     1.6995395868
H       2.0184318723     0.4773926082     2.4944346937
H       1.3162733672     1.7501988646      1.975276598
O      -2.8755692267    -1.2230798996     1.0578580931
H      -3.3477791199    -0.6403469585     0.4417151098
H      -3.5174867447    -1.7017125984      1.593133525
O      -0.7830984523     1.2967308989     -0.789719053
H      -1.7620492963     1.1945391687    -0.8506779213
H      -0.5096055496     1.9496731812    -1.4442026527
O      -3.4831051634     0.8661224255    -0.7712062141
H      -3.9917728606     1.5780607132    -0.3611588373
H      -3.9395053384     0.6823083272    -1.6024992527
O       2.3794485328     0.4191081507    -1.1380093964
H       3.0892888171     0.8020928056    -0.6035543544
H       2.7862126519    -0.0181639296    -1.8989776252
