19
    file 'w6s20.log' at: ---' #p B2PLYPD3 gen pseudo=Read opt freq geom=(nocrowd, newdefinition)'---
Hg     -0.1132050704    -0.1354995852    -0.0288570532
O      -2.0025102628      0.067336669     1.3614317468
H      -2.7058366658     -0.592891047     1.3899909126
H       -2.068557841     0.5844219608     2.1737454697
O       1.2863693128    -0.0838812648     1.7403542955
H       1.1767303781    -0.6094234983     2.5414859404
H       2.2463692675     0.0142049743     1.5504211605
O       -1.177355172     1.4545259158    -1.3531156698
H      -1.9913213283     1.8895708508    -1.0701070981
H      -0.6998857011     2.0853801664    -1.9063269937
O      -1.3179414489    -1.8272074658    -1.0753221719
H       -1.126253153    -2.7729388281    -1.0436609932
H      -1.7949671855    -1.6656643075    -1.8991388158
O       3.7511802459     0.3395946856     0.6628746673
H       4.4635450578    -0.3102595774     0.7227894982
H       4.1739341045     1.1916041657     0.8337340081
O        1.794876081     0.2102907656    -1.2818366748
H       2.6402412697     0.2517810631    -0.7885090078
H        1.970956629    -0.1625186261    -2.1536526276
