19
    file 'w6s6.log' at: ---' #p B2PLYPD3 gen pseudo=Read opt freq geom=(nocrowd, newdefinition)'---
Hg     -0.5562980411    -0.1114016536    -0.1633932737
O       1.1286763621     3.0468979523     0.1269421141
H       1.4906173774      3.559531153     -0.603308233
H       1.0967590955     3.6495165623     0.8772598795
O      -2.4180273273    -0.7611394641    -0.6506266582
H      -3.2621272323    -0.6409138345    -0.0245432681
H      -2.6680646448    -0.7955137394    -1.5827960383
O       1.2576074398     0.4183054444     0.3349028423
H       1.3103093566      1.410438297     0.2808062253
H        2.461671754    -0.3663079025     0.7187876673
O      -4.3230895476    -0.5261471226     0.8889725775
H      -4.9928331067     0.1638616898     0.8162809789
H      -4.7646817696    -1.3191518872      1.215753049
O       3.2553919738    -0.9566720707     1.0078351278
H       4.1230817675    -0.9359613176     0.4073611585
H       3.4548014311    -0.8646998074     1.9482876441
O       5.2458790018    -0.9869972826    -0.4506675174
H       5.9925321644    -0.3810478873     -0.389904662
H       5.5872999454    -1.8333831291    -0.7611006134
