19
    file 'w6s7.log' at: ---' #p B2PLYPD3 gen pseudo=Read opt freq geom=(nocrowd, newdefinition)'---
Hg      0.0927752642     1.0834262914      0.738287726
O      -0.6574339379    -0.7999447928     -2.226306958
H      -1.4793874495    -0.7818649245    -2.7275250309
H      -0.0108852916     -1.221410206    -2.8019911145
O      -0.7930239111       4.90529421     1.0154600023
H      -0.7945218837     5.5236966652      0.275510466
H      -0.9991666674     5.4111946399     1.8105792829
O       0.7120730522     2.9658627562     1.1839506716
H       1.6469820789     3.1835236476     1.0780678099
H       0.0987264896     3.8219927715     1.0859775817
O       -1.059802424    -2.6175579232     1.9997221128
H      -2.0092498368    -2.7881000139     2.0456438731
H      -0.4911586895    -3.5060392004     1.9634432734
O        0.334812929    -4.6532945836     1.9828010977
H       0.1736109544    -5.4365609271     1.4453306568
H       0.7449904228    -4.9477802708     2.8039869835
O      -0.5201258949    -0.7428548783     0.4093405718
H      -0.5989985809    -0.8642683939    -0.5750902718
H      -0.8299266237    -1.8764948672     1.3215512656
