   22

 Na      -0.170045   -0.825142   -0.666417
  O       0.750832    1.344726   -1.176173
  H       1.037979    1.624204   -2.049517
  H       1.554384    1.290261   -0.626420
  O      -2.347237    0.002580   -0.764487
  H      -2.281753    0.896825   -0.388469
  H      -3.029324    0.040121   -1.438996
  O      -1.333951    2.303579    0.371378
  H      -1.600650    3.207760    0.553306
  H      -0.588164    2.326915   -0.251079
  O       0.033003    0.161285    1.478737
  H      -0.532681    0.948325    1.487067
  H      -0.438394   -0.536533    1.947186
  O       2.613952    0.665376    0.737840
  H       1.897036    0.515774    1.375369
  H       3.346104    1.076263    1.203493
  O       1.945826   -1.581988   -0.758441
  H       2.533981   -0.993975   -0.263984
  H       2.449583   -2.367429   -0.978435
  O      -1.474808   -2.162013    0.761748
  H      -1.661267   -3.064924    1.028993
  H      -2.317271   -1.755381    0.527240

