   19

 Na                -0.00009900   -0.00001000   -0.00017400
 O                  1.68230400   -0.90655900    1.20286900
 H                  1.72205600   -1.49977600    1.95503800
 H                  2.59633700   -0.71652300    0.95070100
 O                 -4.10687500   -0.00057800    0.00163300
 H                 -4.69101100    0.45754000   -0.60973300
 H                 -4.68180800   -0.46333600    0.61845600
 O                 -1.68275600    1.20462000    0.90397300
 H                 -2.59664300    0.95405900    0.71122700
 H                 -1.72292900    1.95865300    1.49481500
 O                  4.10716400    0.00042100    0.00130900
 H                  4.68662100    0.61333100    0.46335800
 H                  4.68685300   -0.61134700   -0.46217400
 O                  1.68346200    0.90484200   -1.20297900
 H                  2.59698200    0.71501700   -0.94913000
 H                  1.72426500    1.49473300   -1.95771900
 O                 -1.68321500   -1.20235900   -0.90660700
 H                 -1.72336900   -1.95558500   -1.49839100
 H                 -2.59694500   -0.94975900   -0.71611100


