   16

 Na                -0.88694200   -0.13652200    0.11001200
 O                  0.74446600    0.97048200   -1.06630900
 H                  0.73919800    1.32121600   -1.95977200
 H                  1.65103300    0.67411500   -0.89689700
 O                 -1.25572900    1.97443800    0.77679000
 H                 -0.53333700    2.49808900    0.41882700
 H                 -1.73786400    2.54417900    1.37932800
 O                 -2.72347900   -1.25519600   -0.60056100
 H                 -2.80892000   -2.19109800   -0.79840300
 H                 -3.59002100   -0.87821600   -0.77276000
 O                  3.16810100   -0.24764400   -0.19654000
 H                  3.80412600    0.25896900    0.31760800
 H                  3.68949900   -0.79572400   -0.79097000
 O                  0.80960000   -1.30590700    1.01386000
 H                  0.88849100   -1.92361500    1.74339000
 H                  1.71048500   -1.09556200    0.73159700

