  16
      file 'w5s4.log' was gotten at: ---' #p mp2=full gen pseudo=Read opt freq'---
Hg      -0.2138906233      0.9855450683      1.7722390667
O        1.6527167764      0.5730543939      1.2525347009
H        2.2399962267      0.9824381124      0.4254795032
H        1.9061270535     -0.3238370162      1.5184907096
O       -2.0464234080      1.5482478352      2.2415170257
H       -2.5893636197      2.5640865809      2.0490585924
H       -2.5522673311      0.9296532508      2.7850805272
O        0.2906770747     -1.3178594567      2.8564184311
H        0.5558391182     -1.4590834821      3.7743031985
H       -0.0568648840     -2.1740695934      2.5760338291
O       -3.1013709833      3.6448873194      1.7987760607
H       -3.8680789556      3.6511765005      1.2091454550
H       -3.2878325878      4.2389925728      2.5388360085
O        2.9276835340      1.5743895572     -0.5381131594
H        3.7461192132      2.0343379791     -0.3122612729
H        3.0720953962      1.1367573778     -1.3861966763
