  19
      file 'w6s3.log' was gotten at: ---' #p mp2=full gen pseudo=Read freq'---
Hg      -0.0000050000     -0.0631520000     -0.0000290000
O        1.9418610000     -0.0983280000      0.1912310000
H        2.4265240000      0.6737720000      0.6902210000
H        2.5124820000     -0.6118640000     -0.5100590000
O        2.9986310000      1.7378240000      1.4752070000
H        3.4545600000      2.4948050000      1.0904940000
H        3.4473310000      1.5471930000      2.3070690000
O       -1.9418720000     -0.0985660000     -0.1913180000
H       -2.4265440000      0.6735130000     -0.6903030000
H       -2.5124030000     -0.6118650000      0.5102200000
O       -3.2000530000     -1.4258960000      1.4775860000
H       -3.6727090000     -1.0682150000      2.2375140000
H       -3.6834290000     -2.2143830000      1.2051160000
O       -2.9987130000      1.7375430000     -1.4753540000
H       -3.4472890000      1.5468500000     -2.3072680000
H       -3.4547650000      2.4944950000     -1.0907310000
O        3.2001740000     -1.4261810000     -1.4771500000
H        3.6729390000     -1.0686910000     -2.2371000000
H        3.6834620000     -2.2146470000     -1.2044640000
