   6

 O                 -1.49810700   -0.00777300    0.12120700
 H                 -0.55222400    0.01257500   -0.07104600
 H                 -1.93252100    0.04722900   -0.73065300
 O                  1.38504100    0.00720500   -0.11503200
 H                  1.70702400    0.73434100    0.42231500
 H                  1.68224600   -0.78960500    0.32998100

