   15

 O                 -2.15983100    0.78767200   -0.06581500
 H                 -2.77153400    1.19843900    0.54612700
 H                 -1.36225000    1.35878200   -0.07400500
 O                  0.08908300    2.29298900   -0.06517100
 H                  0.25565200    2.81909700   -0.84869900
 H                  0.87872900    1.72120900    0.04369700
 O                  2.20861400    0.62913000    0.16196900
 H                  2.73540600    0.63737000    0.96220500
 H                  1.91250900   -0.29850400    0.04198400
 O                  1.28612100   -1.89326800   -0.14464800
 H                  1.48958400   -2.34648300   -0.96408900
 H                  0.30825600   -1.90126000   -0.06857500
 O                 -1.41162100   -1.82397900    0.05202900
 H                 -1.80496800   -2.22776800    0.82660500
 H                 -1.74031300   -0.90123300    0.02783800

