   12

 O                  1.35968100   -1.35968100   -0.03626900
 H                  1.49075600   -0.39004600    0.00085800
 H                  1.83146500   -1.66253800   -0.81342700
 O                 -1.35968100   -1.35968100    0.03626900
 H                 -0.39004600   -1.49075600   -0.00085800
 H                 -1.66253800   -1.83146500    0.81342700
 O                  1.35968100    1.35968100    0.03626900
 H                  0.39004600    1.49075600   -0.00085800
 H                  1.66253800    1.83146500    0.81342700
 O                 -1.35968100    1.35968100   -0.03626900
 H                 -1.49075600    0.39004600    0.00085800
 H                 -1.83146500    1.66253800   -0.81342700

