  7
   W2Br
Br       1.1271100000     -0.0450070000      0.0013980000
H       -2.4642460000     -0.6421110000     -0.1096580000
O       -2.2197370000     -1.5446650000      0.0098450000
H       -1.2740240000     -1.5090550000      0.0433390000
H       -1.8467410000      1.7674140000      0.8507560000
O       -1.8847600000      1.6309300000     -0.0785140000
H       -1.0278390000      1.2688640000     -0.2840250000
