10
    file 'w3s2.log' at: ---' #p CAM-B3LYP gen pseudo=Read opt freq'---
Hg      0.0753971304     0.0420053207    -0.0001730347
O       -1.785290726    -0.9931336858    -0.0518851962
H      -1.9104554719    -1.9545897724    -0.0857011861
H      -2.6414992863    -0.5440107049    -0.1259088703
O        2.176718156     0.0323431927     0.0342661894
H       2.7251896057    -0.7685458915     0.0559700991
H       2.7351321621     0.8203816408     0.1300477292
O      -1.0589637372     2.0167111672     0.0028539301
H      -1.1410453461     2.6043022251    -0.7633776888
H      -1.2377054868     2.5455745082     0.7949840285
