10
    file 'w3s3.log' at: ---' #p CAM-B3LYP gen pseudo=Read opt freq'---
Hg      0.3752875121    -0.0656425229    -0.0000806878
O       2.3182892708     0.5961667583    -0.0000722832
H       2.8727775904     0.6344839328    -0.7970525269
H       2.8728171209     0.6343402298     0.7968873575
O        -1.51528256    -0.6193002665    -0.0001498336
H      -2.7648552641     0.0559396948    -0.0000641473
H      -1.6035883337    -1.5830577787     -0.000281465
O      -3.6827479193     0.5914928938    -0.0000502758
H      -4.2257141272     0.5138989956    -0.8039347192
H      -4.2257962901      0.513714063     0.8037605814
