16
    file 'w5s3.log' at: ---' #p CAM-B3LYP gen pseudo=Read opt freq'---
Hg      0.4453934933    -2.4484611598     1.3234568535
O       1.8789176607    -3.4948947901      0.405827589
H        2.061302913    -3.6310325013    -0.7028192386
H       2.5205740109    -3.9599478454     0.9580159977
O      -0.9852377652    -1.4043819375     2.1946681351
H      -0.8245849588    -0.4250650093      2.512524046
H      -1.8651818737    -1.8577049037     2.5204975151
O      -3.0673374307    -2.5510793196     2.9113683616
H      -3.2604725234    -2.8044592379     3.8216184225
H      -3.9101633649    -2.4094107533     2.4643131263
O      -0.5349553059     0.9355007885     2.8919664916
H      -0.9327208328     1.6898560644     2.4413967927
H      -0.3492299133     1.2041698267     3.7993698463
O        2.229796621    -3.7575165512    -1.9594503198
H       2.0555133823    -4.6053862117    -2.3902372514
H       2.9818738875    -3.3328624587    -2.3940573674
