16
    file 'w5s4.log' at: ---' #p CAM-B3LYP gen pseudo=Read opt freq'---
Hg      -0.165558948     0.8341798252     1.7845367595
O       1.6583740795     0.4139050901     1.0141407252
H       2.2627105269     0.9840334845     0.3224103624
H       2.0660603797    -0.4140412715     1.2975292903
O      -1.9750469817     1.4996028184     2.3946097686
H      -2.4869803014     2.4186176018     2.1122154594
H      -2.4793100711     0.9584154719     3.0144214192
O       0.0315950715     -1.323526241     3.0102069587
H       0.3288644496    -1.4404667486     3.9214310751
H      -0.3375772629    -2.1733014835     2.7382356151
O      -3.0752334105     3.5602970395     1.7348983541
H      -3.8407683212     3.5578354023     1.1461235931
H      -3.1630654406     4.3032227947     2.3456814268
O       2.9806977136     1.7340541026    -0.5448996582
H       3.7734155893     2.2086632755    -0.2647386423
H       3.0969849274     1.4672258378     -1.465460507
