16
    file 'w5s5.log' at: ---' #p CAM-B3LYP gen pseudo=Read opt freq'---
Hg     -0.8517746783    -2.6839866866     0.7457028994
O       0.7459405757    -3.7239202325     2.2622407885
H       1.2184011997    -4.5531131086     2.1214115343
H       1.0292744475     -3.386732683     3.1205176724
O      -2.4003972802    -2.7328752367     2.0699888035
H      -2.7620558534    -3.6097000535     2.5806005175
H      -3.0994503067    -2.0729285573     1.9740468388
O      -3.1869779749    -4.7169574366     3.2590742972
H      -3.9155054219    -5.2652357292     2.9414609603
H      -3.2127908594    -4.7176339441     4.2243353622
O       0.4737215655    -2.4897680992    -0.7904310726
H       0.1236389182    -2.4665707449     -1.690605095
H       1.4323190163    -2.0016380181    -0.7342724595
O       2.6659098584    -1.4209350319    -0.6450146575
H       3.4581015182    -1.9192944356    -0.8826393425
H        2.815570275    -0.4957210023    -0.8770050472
