16
    file 'w5s9.log' at: ---' #p CAM-B3LYP gen pseudo=Read opt freq'---
Hg      0.5277159644    -0.1857075434    -0.0079341766
O      -2.9814372274    -2.0536054375    -0.0890071396
H      -3.4692727083    -2.3983471641     0.6684917725
H      -3.4591818587     -2.307236364    -0.8875006928
O      -1.4953304335    -0.0928738112     0.1053426596
H      -1.8947994142     0.8171086692     0.0426380597
H       -2.155166833    -0.9031413447     0.0046942048
O       2.5565486414    -0.7365841961    -0.0573239953
H       2.8953235849    -1.5231236139     0.3975840295
H       3.1359553117    -0.5268167697    -0.8058205598
O       0.6551790111     2.1588535355    -0.0817499348
H      -0.1942042375     2.6330205217    -0.0639587573
H       1.3718445084     2.7902618005     0.0518307609
O      -2.1529380793     2.4667101808    -0.0229172925
H       -2.580448255     2.8688320246     0.7454969298
H      -2.6071709751     2.8310605122    -0.7946528681
