19
    file 'w6s19.log' at: ---' #p CAM-B3LYP gen pseudo=Read opt freq'---
Hg      0.2751994249     0.0005896061     0.0106068874
O       1.6666052629    -0.5879645075    -1.7616000155
H       1.5024010043    -0.3983047687     -2.693794576
H       2.2861422686    -1.3274244184    -1.7242615937
O      -1.4025978433     1.5190783495     0.0079870267
H      -1.3589912556     2.4434384526    -0.2599356232
H      -2.3322204103     1.2032828049    -0.0213346512
O      -3.7123352405     0.0769913622     0.0040998269
H      -4.3286450196     0.1040731248    -0.7396046183
H      -4.2624525408      0.081684768     0.7986949965
O       1.2586543382    -1.3019862607     1.6558789173
H       0.7835909877    -1.9599347049     2.1780488562
H       2.0487598861    -1.0507828094      2.149482676
O      -1.4660404334    -1.5015935423    -0.0273824499
H      -2.3769996581    -1.1382249309    -0.0509606848
H      -1.4640053084    -2.3751331093     -0.434801378
O       1.8926632122     1.6196044626     0.5011911343
H       2.6278742569     1.8324619871    -0.0864093593
H       1.8465470679     2.3093231341     1.1745576287
