19
    file 'w6s10.log' at: ---' #p CAM-B3LYP gen pseudo=Read opt freq'---
Hg     -0.1380032305     0.2358684971    -0.0953437234
O       3.0183260211     2.4467004329     0.2837474279
H       3.3415400091     2.8824498519     1.0805937746
H       3.5662138927     2.7510707162    -0.4482725075
O       3.1699164505     -1.861633853     0.1926314823
H       3.7021588069    -2.0960534739    -0.5759191957
H       3.5971144103    -2.2541032511     0.9624760298
O         -2.0525836     0.4763285207    -0.7602533906
H      -2.9184429205     0.4403428698    -0.1500487412
H      -2.2068220782     1.0110404567    -1.5490818241
O      -0.8502484652     -1.766287158     1.1690692762
H      -0.7996375901    -1.8863885019     2.1243680763
H      -1.0855407028    -2.6245743001     0.7981618205
O      -4.0683208714     0.3586192276     0.6484567615
H      -4.7509243134    -0.2975055839     0.4624750435
H      -4.5024008973     1.1377627044     1.0164338242
O        1.805045251     0.2443009611     0.4155147567
H        2.338799524     1.1160398184      0.339364966
H       2.3770703039    -0.6003779347     0.3070261429
