19
    file 'w6s15.log' at: ---' #p CAM-B3LYP gen pseudo=Read opt freq'---
H      -1.1049882456     2.6165821303    -1.0777292472
O      -1.1032701805     1.6698851181     -1.261620095
H      -1.6323325021     1.5277276459     -2.055302059
H       1.6322300607     2.1406907143     1.4057592338
O       0.8025438757     1.6558639848     1.4870708673
H       0.3613129191     1.9681350533     2.2857293213
H       2.0379007902     0.8745003867    -2.0738548134
O       1.9314012891     0.2614529617    -1.3370507374
H       2.7592205226    -0.2240310459    -1.2418556131
H      -2.0359898054    -0.8765880648     2.0758712195
O      -1.9328154321    -0.2633195015     1.3387801415
H      -2.7614587212      0.221373827     1.2467071931
H       1.6309248186    -1.5304091051     2.0534999623
O       1.1021574448    -1.6692574693     1.2590340863
H       1.1011301197    -2.6155606691     1.0731591889
H      -0.3570433191     -1.964030474    -2.2846560542
O      -0.8000897987    -1.6544941189     -1.485946594
H      -1.6296398816    -2.1400820861     -1.407836018
Hg     -0.0013539542     0.0019707126     0.0010300174
