19
    file 'w6s1.log' at: ---' #p CAM-B3LYP gen pseudo=Read opt freq'---
Hg      -0.000047727    -0.1309438968     0.0060653209
O       5.9256629269    -0.3313178941     0.3964094324
H       6.5632747687    -0.7077060299    -0.2204112615
H       6.3681910316    -0.1984068356      1.242469808
O      -5.9261912543    -0.3427423404    -0.3755739247
H      -6.5642769195    -0.6937126116     0.2555734959
H      -6.3683239685    -0.2436587929    -1.2264605273
O      -3.9508583912     1.0258996593     0.1714955597
H      -4.1438634429     1.8062419507     0.7068705102
H      -4.8058293533     0.4383081559    -0.0280862387
O       3.9514639157     1.0160924271    -0.2044550231
H       4.8060392704     0.4361146027     0.0181737312
H       4.1450978646     1.7746135342    -0.7701153887
O       1.8002366098    -0.1124914556     -0.810442213
H       3.0735859891     0.5279666904    -0.4646222763
H       1.8548931168    -0.7046110657     -1.568452218
O      -1.8003559731    -0.0793040996     0.8210836462
H      -3.0731989349     0.5477513932     0.4504586132
H      -1.8554755289    -0.6408643913     1.6019699535
