19
    file 'w6s13.log' at: ---' #p CAM-B3LYP gen pseudo=Read opt freq'---
Hg     -0.0621187139    -0.0599362592     0.1771363124
O       3.0428296919    -2.2061647322    -1.2872174809
H       3.5267479999    -2.9261907152    -0.8660377797
H       3.4192684802    -2.0815906718    -2.1659535488
O      -0.2724139788    -0.5941359176     2.5294649764
H       0.4349846635    -0.9382243572     3.0874373189
H      -1.0992251103    -0.7636365979     2.9961359359
O      -3.1933867743    -1.7319589052    -1.7240949082
H      -3.4106596612    -1.5767971292    -2.6505627351
H       -3.839249797    -2.3585830002    -1.3771007106
O        0.317932175     2.2736377634     0.7861255861
H       0.3953072349     3.0504545905     0.2192669209
H       0.2728670902     2.5965851774     1.6941620848
O       1.9965801272    -0.4129466044     0.0916964058
H       2.4509306523    -1.1344416176    -0.5012454877
H       2.5753932888     0.3502340831     0.2080784222
O      -2.1123239666    -0.0730067138    -0.2176500464
H      -2.5763245877    -0.7400798058    -0.8682685918
H      -2.5893764644     0.7651310031    -0.1929432839
