19
    file 'w6s2.log' at: ---' #p CAM-B3LYP gen pseudo=Read opt freq'---
H       6.1214951922     0.7538694197    -0.0758156178
O       5.3842241548     0.4492871067    -0.6187868932
H       5.7373892178    -0.0581400463    -1.3588542798
H       1.2147678389     1.5222352686     1.3535115949
O       1.1663498338     1.0804141958      0.497120654
H       2.4663622135     1.4184688656    -0.2886074621
H      -2.6716310508    -3.8623912462     0.6556197335
O      -2.6101242901    -3.0419424181     1.1573551749
H      -3.0778006063    -3.1798074942     1.9883523475
H      -3.1135247417    -0.3193716076    -0.2787789024
O      -2.2727146814    -0.8207000342     0.0211052707
H      -2.4526651027    -1.7132238777     0.4891784177
H       3.2320437769     2.3990605419    -1.3936982914
O       3.3375080908     1.7623645121    -0.6769505729
H        4.239471976     1.1669552772    -0.6887887823
H      -4.9748391619     0.8308670483    -0.2226504289
O      -4.2761034866     0.4748589828    -0.7823968085
H      -4.6568728062     0.3270842123    -1.6552424724
Hg     -0.5530163669     0.1494512934     0.2996873185
