19
    file 'w6s23.log' at: ---' #p CAM-B3LYP gen pseudo=Read opt freq'---
Hg      0.5005160956    -0.0356519603     0.0428248323
O      -0.8892410401     1.7715108068      0.151852885
H       -0.601950724     2.6791079643     0.0025538485
H      -1.8716040627     1.7264765151     0.0510476134
O      -3.0925982905    -1.3101405099     0.3220015868
H      -3.5265633783    -0.4628348131     0.1335544361
H      -3.7559539912    -1.9793626298     0.5206291072
O       1.5937371816     0.0153760659     2.1265246177
H       1.9146915823    -0.7842583834     2.5638665423
H       1.3694667057     0.6432297431     2.8254604088
O      -0.7239729742    -1.7306417213    -0.2757369248
H       -1.737329232    -1.6129106673     -0.079630405
H      -0.5759918474    -2.3153702214    -1.0287480687
O       2.3433485658     1.0388323473    -0.6055500283
H       3.1022600207     1.0685459559    -0.0073826585
H       2.6681572755     1.1046498653    -1.5136181115
O      -3.5788576525     1.4688096746    -0.0717948946
H      -4.0086710713     1.7611979714    -0.8863180502
H      -4.0912641628     1.8634259966     0.6464022635
