19
    file 'w6s21.log' at: ---' #p CAM-B3LYP gen pseudo=Read opt freq'---
Hg      0.0890851502      0.075532762     0.0802771679
O      -1.1387131791     1.8253608097    -0.9500779119
H      -1.7504711817     1.7667475493    -1.6940378133
H      -1.4203556396     2.5738332864    -0.4097944314
O      -1.8400964364    -1.2301376071     0.5330613496
H      -2.6324679964    -0.9741984268     1.0207101177
H      -2.1059537458    -1.9011623916    -0.1076306834
O       0.2058693409     1.7074777025     1.7993264511
H      -0.1548233838     1.6590083576     2.6930323067
H       0.9763452095     2.2875481826     1.8357200268
O       0.3547432698    -1.6099549279    -1.5692625359
H       0.9044002156     -2.376290164    -1.3642033179
H       0.3542883653    -1.5102510952    -2.5290626165
O       1.0676156695    -1.6287674619     1.4101750267
H        0.487494505    -2.2223410782     1.9026866626
H       1.9145491369     -1.612189901      1.872328141
O       1.8864652312     1.3891871627    -0.7419342895
H       2.8038078782     1.1241360957    -0.8811631399
H        1.695007921     2.0913112547    -1.3758143106
