19
    file 'w6s20.log' at: ---' #p CAM-B3LYP gen pseudo=Read opt freq'---
Hg     -0.1616520247    -0.0923530542     -0.051942598
O       -2.035393714     0.0266611619     1.3451824617
H      -2.7190207268    -0.6536195222     1.3772657189
H      -2.1662321411     0.6092419492     2.1033353611
O       1.2798387252    -0.1162271663      1.692294568
H       1.1400886143    -0.5002794797     2.5647183418
H       2.2415208559    -0.0141580894     1.5192641286
O      -1.1362629643     1.5991899881     -1.300564199
H      -2.0053207874     1.9776806029    -1.1202567064
H       -0.636833277     2.2439381068    -1.8164397116
O      -1.2399297407    -1.9076581752    -1.0344268229
H      -0.9962175968    -2.8352984585    -0.9247326936
H      -1.7534139544    -1.8408041138    -1.8492357172
O       3.7506701481     0.2860772105     0.6256843018
H       4.4390642622    -0.3908869289     0.6652100798
H       4.1994386044     1.1242566423     0.7993397565
O       1.7636941972     0.2279068784    -1.2692400978
H       2.6119570337     0.2501518747    -0.7769875561
H       1.9303730036    -0.0653924097    -2.1721680227
