19
    file 'w6s4.log' at: ---' #p CAM-B3LYP gen pseudo=Read opt freq'---
H      -3.3256210777     0.5559478042     0.6734265117
O       -2.694482039    -0.1160851709     0.2191873225
H      -3.1381503788    -0.7444416206    -0.4624759493
H       3.7626578561     0.8866805184     1.5792760471
O        3.440534314     0.3529273174     0.8425851737
H       4.2299693652    -0.1431628054     0.3263935257
H       -0.316617659     1.4846487086    -1.1963658671
O      -0.2746006804     0.8426969632    -0.4771709128
H      -1.8154935299     0.2478133038    -0.0518962283
H      -3.9804660731    -2.6186957274    -1.1295068182
O      -3.7506752013    -1.7227375291    -1.3980814146
H      -4.2793524379    -1.5069654307    -2.1732666506
H      -4.8039595075     2.1403195886     1.0130629088
O      -4.2119552543     1.4934781432     1.4107258643
H      -4.5414907997     1.3031942484     2.2955583576
H       5.5573140567    -1.6721108772    -0.0380623549
O       5.2099157084    -0.8335562592    -0.3656000766
H       5.9132316522    -0.3876551513    -0.8528421741
Hg       1.566261686     0.6415639759     0.1442527351
