19
    file 'w6s5.log' at: ---' #p CAM-B3LYP gen pseudo=Read opt freq'---
Hg     -0.0000553288    -0.0583672981    -0.0001077488
O      -1.9787841618    -0.0598503179     0.0172726728
H       -2.519109666    -0.6829439596      0.641017144
H      -2.5309419707      0.562894044    -0.5964287854
O      -3.2049248687    -1.5960010222     1.5540878122
H      -3.6549073511    -2.3947698438     1.2559252373
H      -3.6460322689    -1.2993325156     2.3583442874
O       1.9786724459    -0.0568108675    -0.0176997974
H       2.5198039623    -0.6741835392    -0.6463964151
H       2.5300456214     0.5601704282     0.6024897647
O       3.2320933828     1.4644262419     1.5118384046
H       3.6872352717     1.1601032414      2.305341647
H         3.67700063     2.2658962805      1.213303423
O       3.2068291572    -1.5786986029    -1.5670692183
H       3.6477376561     -1.274516218    -2.3686247681
H       3.6575952463    -2.3795948318    -1.2758828304
O      -3.2341061744     1.4753271208    -1.4966733762
H      -3.6888791365     1.1781646366    -2.2930981755
H      -3.6799194466     2.2733780233    -1.1904372774
