19
    file 'w6s6.log' at: ---' #p CAM-B3LYP gen pseudo=Read opt freq'---
Hg     -0.5736781111    -0.0541387921    -0.1647683528
O       1.2810104205       3.10131525     0.1399044926
H       1.6430849869     3.6026449895    -0.5980702828
H       1.2586553376     3.7027914977     0.8914817562
O      -2.4387590958    -0.6688325959    -0.6448844489
H      -3.2905688054     -0.655115562     -0.008853867
H      -2.6691272608    -0.8371353888    -1.5664971077
O       1.2381963868     0.4754485288     0.3200720587
H       1.3267974105     1.4647510982     0.2675163643
H       2.4094471553    -0.2909138173     0.7039102808
O      -4.3645058391    -0.6480887899     0.8720955308
H      -5.0595936061     0.0199083637     0.8349891983
H      -4.7556873536    -1.4687859694     1.1952936472
O       3.2162864172    -0.8775420329     1.0061169016
H       4.0799063085    -0.9141954461      0.403154968
H       3.4165389804    -0.7947020273     1.9471134229
O       5.2122609756    -1.0445279193     -0.436561625
H       5.9585804892    -0.4349195534    -0.4435199606
H       5.5306612034    -1.9087478333    -0.7216439766
