19
    file 'w6s9.log' at: ---' #p CAM-B3LYP gen pseudo=Read opt freq'---
Hg      0.2968967644     0.1900185816    -0.1392640723
O       4.1640264578     1.1358907874    -0.1450606866
H       4.5909561863     1.8719275853    -0.6033376868
H       4.8763260223     0.5847588013     0.2049616794
O       -5.645504215     0.9203749295    -0.5549869121
H      -6.0536440268     1.1193667956    -1.4057963365
H      -6.3023824778     1.0628926597     0.1360812375
O      -3.7635988779    -0.6486205387    -0.4320507302
H      -4.0069743954    -1.5491843612     -0.181127196
H      -4.5905478878     0.0238256633    -0.4519778547
O       1.7178614251     1.5498378901     1.3517280243
H       1.4824405918     2.0989493802     2.1071581881
H       2.6671064672     1.6567225529     1.1979125922
O       2.0653366476     0.1126054531    -1.2198054493
H       2.9373909606     0.4652304043    -0.8454525353
H       2.2120235171    -0.5342449027    -1.9202103991
O      -1.5590377808     0.0775336184     0.5684205996
H      -1.5862191449     0.2968553135     1.5061527073
H      -2.8809862338    -0.3384406136    -0.0057451696
