  7
   W2I                             
I        1.0422510000     -0.0239510000      0.0444440000
O       -2.2837190000      1.6299900000     -0.0923000000
O       -2.8158980000     -1.4186890000      0.0351540000
H       -2.1888050000      1.8036830000      0.8274530000
H       -1.4212150000      1.3230730000     -0.3477380000
H       -2.8946930000     -0.4835230000     -0.0700400000
H       -1.8826640000     -1.5576830000      0.0783660000
