  13
   W4I                               
I        1.4712890000     -0.0013310000     -0.0059980000
O       -1.8506660000      2.1189060000     -0.3664670000
O       -1.8458330000      0.3657240000      2.0997050000
O       -1.8521080000     -2.1166300000      0.3675310000
O       -1.8428000000     -0.3703460000     -2.0997020000
H       -2.0644330000      1.6988780000      0.4552590000
H       -0.9108220000      2.0293130000     -0.4270690000
H       -0.9068330000      0.4245120000      2.0036290000
H       -2.0633080000     -0.4578700000      1.6852770000
H       -0.9126390000     -2.0248160000      0.4325550000
H       -2.0628070000     -1.6974080000     -0.4555110000
H       -0.9034550000     -0.4240390000     -2.0004120000
H       -2.0654610000      0.4540280000     -1.6901380000
