   22

 F       -0.102609   -0.974192   -0.797376
 O       -0.275100    0.097840    1.630544
 H       -0.639545    0.970333    1.408237
 H       -0.171892   -0.319432    0.747673
 O       -1.210131    2.403216    0.207115
 H       -0.374048    2.312800   -0.277423
 H       -1.804349    1.788619   -0.255564
 O        2.550747    0.395779    1.296844
 H        1.651228    0.306443    1.651474
 H        2.654671   -0.379740    0.723423
 O        2.471652   -1.479582   -0.897544
 H        1.488564   -1.449479   -0.874900
 H        2.691375   -0.753741   -1.487510
 O       -2.494066    0.216367   -1.100801
 H       -2.871163   -0.372919   -0.436116
 H       -1.605806   -0.175032   -1.209269
 O        1.193745    1.415018   -1.060934
 H        0.697377    0.576023   -1.098760
 H        1.754246    1.299648   -0.277503
 O       -2.149312   -2.006000    0.794364
 H       -1.443727   -1.959176    0.128652
 H       -1.803722   -1.417729    1.477280

