   16

 F                 -0.25225100   -1.37012800   -0.42809500
 O                 -2.68640100   -0.13605100    0.07245000
 H                 -2.29306500    0.58286800   -0.44217000
 H                 -2.03020500   -0.83669700   -0.08176000
 O                 -0.60111200    1.08912800   -1.49573300
 H                 -0.43876000    0.14992300   -1.27769100
 H                  0.07344900    1.53882000   -0.96792400
 O                  1.54405500    1.61396100    0.42222700
 H                  0.91599000    1.21366200    1.04741600
 H                  1.95717500    0.83090900    0.02324200
 O                  2.25505800   -1.03685400   -0.45444800
 H                  1.27345900   -1.22911200   -0.51301100
 H                  2.51240100   -1.41273700    0.38869600
 O                 -0.29755100   -0.04539300    1.82165100
 H                 -1.21069600    0.24426300    1.71639500
 H                 -0.20188400   -0.62907400    1.03048700

