15
Configuration: P15.com
 S                  1.23938309   -0.80138206   -1.10100108
 H                  2.48543719   -0.84559907   -0.62287405
 H                  1.25746710    0.52971404   -1.20868709
 S                  0.43034803    3.13832824   -0.32125602
 H                 -0.52982104    3.73506529   -1.02920708
 H                 -0.45351003    2.44903519    0.40662303
 S                 -1.68652313    0.18339901    1.54582412
 H                 -2.70193021   -0.29500602    0.82229006
 H                 -0.77817906   -0.49260404    0.83633806
 S                 -5.00120038   -1.32544110   -0.44487503
 H                 -5.89947245   -1.56333312    0.51181604
 H                 -5.77567042   -0.40185003   -1.01592008
 S                  5.11761039   -1.14449709    0.32144502
 H                  5.15535339   -1.68970713    1.53806512
 H                  5.64643243   -2.23221517   -0.24062502
