12
Configuration: T5.com
 S                  3.37271226   -0.25575302   -0.44464403
 H                  3.47558026   -0.15494801   -1.77063914
 H                  2.39314218    0.65037905   -0.39126303
 S                 -0.04560600   -1.60636512    0.56344204
 H                 -0.83734406   -2.24017817    1.43045911
 H                  1.03211108   -2.30529018    0.92023207
 S                 -3.40792826   -0.18727601   -0.50188204
 H                 -2.36880018    0.64147905   -0.37476403
 H                 -2.68903720   -1.05501508   -1.21611810
 S                  0.01067500    2.01276815    0.33365703
 H                  0.09112801    1.72138713    1.63192312
 H                  0.02557400    3.32819526    0.56101104
