12
Configuration: T6.com
 S                 -0.16786633    2.88034940    0.03236834
 S                 -2.88957562   -0.17488692   -0.17477638
 S                  0.16845013   -2.84963668    0.19259951
 S                  2.88751905    0.16030895   -0.18587111
 H                  0.90616671    2.08581013   -0.00913538
 H                  0.11441773    3.29000587    1.26993856
 H                 -2.12092559    0.91400030   -0.07372092
 H                 -3.51604583    0.08690435    0.97331527
 H                 -0.92474504   -2.08947765    0.07771716
 H                 -0.09229767   -3.50768342   -0.93794608
 H                  3.53296489   -0.10619916    0.95064960
 H                  2.12402919   -0.93151657   -0.07994377
