  19
      file 'w6s13-Final.log' was gotten at: ---' #p mp2=full gen pseudo=Read freq geom=checkpoint'---
Hg      -0.1314503131     -0.1582476257      0.0138332434
O        3.0566672995     -2.0128615154     -1.3740744023
H        3.5479380399     -2.7545642539     -1.0016402614
H        3.5335811706     -1.7440188438     -2.1675583126
O       -0.3706372708     -0.4401291147      2.4549288234
H        0.2615933312     -0.9056582906      3.0155385446
H       -1.1990238212     -0.4611671225      2.9488981931
O       -3.2326323562     -1.8663763512     -1.5702821078
H       -3.4423543221     -1.8357286015     -2.5111315091
H       -3.9531587693     -2.3470862652     -1.1453364908
O        0.6102399986      2.0705712626      0.8484260582
H        0.7198991110      2.9278530655      0.4185322882
H        0.4901206034      2.2717813290      1.7846552754
O        1.8654868905     -0.4873825319      0.1562399454
H        2.4027714875     -1.0929357383     -0.5108881646
H        2.3534993325      0.3255225745      0.3527484257
O       -2.1242789062     -0.0602444770     -0.3333134636
H       -2.6213794376     -0.8023132720     -0.9019451081
H       -2.4891197184      0.8113353623     -0.5392015869
