  19
      file 'w6s9-Final.log' was gotten at: ---' #p mp2=full gen pseudo=Read freq'---
Hg       0.3318200000      0.0717000000     -0.2604900000
O        4.1209800000      1.0564700000     -0.0671600000
H        4.5904600000      1.7606200000     -0.5332200000
H        4.8109200000      0.4967100000      0.3114800000
O       -5.5329600000      1.0067900000     -0.3460200000
H       -5.9799000000      1.3081600000     -1.1455700000
H       -6.1874000000      1.0125700000      0.3615800000
O       -3.7358300000     -0.6287700000     -0.5646700000
H       -3.9966300000     -1.5385400000     -0.3711800000
H       -4.5419000000      0.0629100000     -0.4338300000
O        1.5177100000      1.7328500000      1.2201400000
H        1.1477800000      2.4374800000      1.7633700000
H        2.4747900000      1.8208900000      1.3027400000
O        2.1021700000      0.0957100000     -1.2380700000
H        2.9519800000      0.4415600000     -0.7781900000
H        2.3204000000     -0.6291500000     -1.8389800000
O       -1.4790000000     -0.0395500000      0.4684000000
H       -1.4387300000      0.0213000000      1.4327500000
H       -2.8551900000     -0.3934100000     -0.1154800000
