15
Configuration: s5.com
 H                  0.18514301   -1.36309610   -0.37590503
 O                  0.94493307   -1.93726615   -0.13422201
 H                  1.03656108   -2.53901720   -0.87577606
 H                 -3.60996728   -0.25393602    1.39600811
 O                 -3.50936027    0.09778901    0.50781404
 H                 -4.27217933   -0.24011702    0.03192800
 H                  2.19476317   -0.75788006    0.32573002
 O                  2.71658521    0.04007100    0.54419504
 H                  3.05806824   -0.12860601    1.42465211
 H                  1.27209510    2.58186220   -0.79315306
 O                  0.86783107    1.96381215   -0.18094401
 H                  1.60558312    1.39961211    0.11852901
 H                 -0.44332003    0.73536606   -0.62421305
 O                 -0.92597107   -0.09602401   -0.77357006
 H                 -1.77888914    0.01875000   -0.33398603
