  16
      file 'w5s7.log' was gotten at: ---' #p mp2=full gen pseudo=Read opt freq'---
Hg       0.9042129517     -0.0087511077      0.3014187633
O       -0.5803516165      1.0547659587     -1.2298920646
H       -1.5349243687      1.0272420395     -1.0824491072
H       -0.4191773918      1.8798010838     -1.7070204555
O        0.7625097084     -1.4708143190     -1.2703725405
H        1.4590951910     -2.1050193651     -1.4963931253
H        0.3801523365     -1.1473296984     -2.1001487822
O        4.3327179901      1.3060419978      1.6559122229
H        4.8715309782      0.8530402613      2.3160389823
H        4.7628218688      2.1529604411      1.4834469699
O        1.8966289398      1.2095119001      1.6040823047
H        2.9641871517      1.2442195362      1.6791964443
H        1.4895830768      1.3942401125      2.4609193102
O       -1.0755418721     -1.0387337850      1.0370876764
H       -1.5626786849     -0.8833226460      1.8567712558
H       -1.3053868224     -1.9379925266      0.7691197733
