  7
   W2At                               
At       1.1863000000      0.0137700000      0.0803207000
O       -2.3077400000      1.6332080000     -0.0803013000
O       -2.8657660000     -1.4252250000      0.0360259000
H       -2.1387290000      1.7419210000      0.8424544000
H       -1.4579580000      1.3734300000     -0.4212120000
H       -2.9283210000     -0.4854420000     -0.0690118000
H       -1.9325270000     -1.5787620000      0.0870631000
