      19
   DOI10.1007/s00894-012-1716-5
H      5.224436000      0.767207000     -0.670586000
O      4.656070000     -0.000874000     -0.537726000
H      5.224062000     -0.768501000     -0.674737000
H      3.491255000     -0.002479000      0.394477000
O      2.634316000     -0.002263000      0.955980000
H      2.911469000     -0.004104000      1.881142000
H     -5.215286000      0.757696000      0.765756000
O     -4.647747000     -0.004067000      0.606245000
H     -5.214992000     -0.768346000      0.754332000
H     -1.349717000     -1.141313000     -0.508289000
O     -0.456060000     -1.440577000     -0.188898000
H     -0.431653000     -2.405021000     -0.181596000
H     -3.360435000      0.002874000     -0.363166000
O     -2.528649000      0.003669000     -0.918690000
H     -2.844825000      0.005756000     -1.832025000
H     -0.429914000      2.408157000     -0.173422000
O     -0.455071000      1.443763000     -0.183862000
H     -1.348876000      1.146081000     -0.504351000
Mg     0.810133000      0.000398000      0.270673000
