      19
   DOI10.1007/s00894-012-1716-5
H     -4.762242000      1.050290000      0.414868000
O     -4.196209000      0.643046000     -0.249514000
H     -4.756181000      0.557378000     -1.028458000
H      3.804220000     -0.920025000      0.557747000
O      2.959358000     -1.113400000      0.129163000
H      3.019658000     -2.036784000     -0.152292000
H     -0.014701000     -0.965321000     -2.203308000
O      0.000990000     -0.770222000     -1.259362000
H     -0.909289000     -0.920969000     -0.893381000
H     -0.927518000     -0.183836000      1.255668000
O     -0.023982000      0.170295000      1.463246000
H      0.014771000      0.370174000      2.405566000
H     -2.501155000     -1.739760000      0.568862000
O     -2.138826000     -0.890358000      0.284927000
H     -2.940719000     -0.329455000      0.089002000
H      2.867831000      2.132795000     -0.896823000
O      2.100743000      1.897755000     -0.357253000
H      1.719850000      2.739398000     -0.071036000
Mg     1.314073000      0.062433000     -0.011339000
