      13
   DOI10.1007/s00894-012-1716-5
H      0.018430000      0.782034000     -0.342095000
O     -0.637828000      0.000212000     -0.298396000
H      0.018431000     -0.781626000     -0.342155000
H      1.350705000     -2.539228000     -0.761616000
O      1.153090000     -1.776682000     -0.208081000
H      2.008911000     -1.367414000      0.010277000
H      4.078304000     -0.000610000     -0.181946000
O      3.301462000     -0.000252000      0.391618000
H      3.680369000      0.000078000      1.279695000
H      2.009365000      1.367266000      0.009564000
O      1.153467000      1.776780000     -0.207999000
H      1.350847000      2.539827000     -0.760927000
Ca    -2.713844000     -0.000040000      0.183603000
