10
    file 'w3s1.log' at: ---' #p wB97XD gen pseudo=Read opt freq'---
Hg     -0.8001708494    -0.1407944941    -0.0004843139
O       1.3331002877     2.6615708098    -0.0003763524
H       1.5712479979     3.1835977097     0.7708168949
H       1.5716620984     3.1832851891    -0.7716529426
O       1.1639472923     0.1334173163     0.0000328846
H       2.3070896615    -0.8263995967     0.0003509595
H       1.3088874529     1.1479468244    -0.0000650772
O       3.0746345912     -1.521624893     0.0004189128
H       3.6211829129       -1.5305871    -0.8007530213
H       3.6209185546    -1.5306837656     0.8017700558
