10
    file 'w3s2.log' at: ---' #p wB97XD gen pseudo=Read opt freq'---
Hg      0.0713335874     0.0270750512    -0.0001851943
O       -1.809765837    -1.0029809901     0.0291793501
H      -1.9235716619    -1.9606115147    -0.0338563916
H      -2.6380486564    -0.5652793758    -0.2065679415
O       2.1897943438     0.0466057076    -0.0399369025
H       2.7328090768    -0.7525001764      0.004017662
H       2.7242488475     0.8113615993     0.2134613405
O      -1.0555734234     2.0269127967    -0.0103308638
H      -1.0581833872     2.6493453428    -0.7476197601
H      -1.2955658899     2.5211095593     0.7829147012
