10
    file 'w3s3.log' at: ---' #p wB97XD gen pseudo=Read opt freq'---
Hg      0.3807862426    -0.0624176467    -0.0000440808
O       2.3350284924     0.6168444136    -0.0001012368
H       2.8925523029     0.6139390924    -0.7907636105
H       2.8925538779     0.6140932943     0.7905607252
O       -1.513753876    -0.6160627651    -0.0000991969
H      -2.7967572307     0.0737960223    -0.0001405239
H       -1.593406454    -1.5768805912    -0.0000684834
O      -3.6996083517     0.6038402699     -0.000133943
H      -4.2381168082     0.5024303852    -0.7995760888
H      -4.2380911953     0.5024535255      0.799328439
