13
    file 'w4s3.log' at: ---' #p wB97XD gen pseudo=Read opt freq'---
H       4.5030335119     1.3257118912    -0.3970014079
O       4.0773046578     0.6908182265     0.1881415202
H       4.7481019039     0.2771621691     0.7403189299
H      -0.1842110558    -0.8609010809     1.5053754469
O      -0.2302804807    -0.5149170843     0.6073626404
H       1.3414907877    -0.4970844002    -0.1794953294
H      -4.4400379961     1.2993400345    -0.0727074753
O      -4.0076096633     0.4945359534    -0.3866699618
H      -4.6786051351    -0.1554833073     -0.632806189
H       3.1024901276     0.0206019148    -0.2511085887
O       2.1909187253    -0.5187687138    -0.6762924119
H       2.3592989262    -1.3952800242    -1.0365667476
Hg     -2.0808233095    -0.0428765787     0.1852095741
