16
    file 'w5s9.log' at: ---' #p wB97XD gen pseudo=Read opt freq'---
Hg      0.5109991862     -0.182238797     0.0544967553
O      -2.9470805249    -2.0734982296     -0.131564343
H      -3.4352579462    -2.4713343785     0.5941316611
H       -3.431074478    -2.2643498444    -0.9388109493
O      -1.5192671621    -0.0834905077     0.2735711002
H      -1.9107231748     0.8159445883     0.1277630738
H      -2.1531801202    -0.8810903997     0.0734792835
O       2.5535347684     -0.738657301    -0.0454604228
H       2.8887043321    -1.5453632049     0.3664489203
H       3.1053146349    -0.5263126475    -0.8088498327
O       0.6524225879     2.1630665909    -0.1432427439
H       -0.196372096     2.6320410387    -0.1140644063
H       1.3599907331     2.7922012769     0.0201527854
O      -2.1509911934     2.4768943508    -0.0328339894
H      -2.5632858097     2.9138663224     0.7195329113
H      -2.6111167375     2.8107321421    -0.8095368036
