19
    file 'w6s1.log' at: ---' #p wB97XD gen pseudo=Read opt freq'---
Hg     -0.0001689954    -0.0952564724     0.0100132246
O       5.9019826057    -0.3816112372     0.3896354754
H       6.5381016921    -0.7356849223    -0.2358002331
H       6.3521083321    -0.2656724233     1.2297521352
O      -5.9026570299    -0.4028507088    -0.3482781642
H      -6.5392087328    -0.7103252971     0.3009072522
H       -6.352442787    -0.3478254537    -1.1947465345
O      -3.9564286836     1.0529280061     0.1162808714
H      -4.1649849662     1.8267844749     0.6489112196
H      -4.7911172566      0.441445369    -0.0454037706
O       3.9573743775     1.0389194706    -0.1786794139
H       4.7915559552     0.4398263092      0.026647283
H        4.166560072     1.7721948072    -0.7657002688
O       1.8034563867     -0.087416447     -0.809985909
H        3.089145015     0.5544698593    -0.4492125072
H        1.856978525    -0.6948729241    -1.5515711975
O      -1.8037513221    -0.0269259232     0.8273018642
H      -3.0885949761     0.5884007619     0.4211463321
H      -1.8578842116    -0.5792982492     1.6107333412
