19
    file 'w6s10.log' at: ---' #p wB97XD gen pseudo=Read opt freq'---
Hg     -0.1260563257     0.2417415623    -0.0783755011
O       2.9851616752     2.4761867135     0.2592557791
H       3.2949516088     2.9442354543     1.0383814795
H       3.5582896568     2.7364522211    -0.4653413474
O       3.1247628566    -1.8858745129     0.1814252102
H        3.677108239    -2.0823546693    -0.5787191816
H       3.5374707717    -2.3095158241     0.9378384949
O       -2.037675649     0.4679590379     -0.798656265
H      -2.8813358817     0.4448340908    -0.1790001549
H       -2.185425734     1.0479789044    -1.5519445164
O      -0.8534877581    -1.7901851382     1.1438640992
H      -0.8251601441    -1.9222884927      2.094631378
H      -1.0589748964    -2.6449874781     0.7574640105
O      -4.0216280815      0.363238411      0.679081267
H      -4.7004040849     -0.296255846     0.5128360258
H      -4.4626693127     1.1440322056     1.0239816532
O       1.8097642441     0.2512928916     0.5039205173
H       2.3379151098     1.1136438804     0.3846570391
H        2.370653706    -0.5865334117     0.3561000124
