19
    file 'w6s13.log' at: ---' #p wB97XD gen pseudo=Read opt freq'---
Hg      -0.019002666    -0.0674883225      0.207980863
O       2.9572921225    -2.2687419553    -1.3330719232
H       3.4190739649    -3.0115823888    -0.9361297443
H       3.3406043739     -2.134520906    -2.2031265001
O      -0.2301249562    -0.5554201151     2.5759596669
H       0.4751785953    -0.8892648033     3.1364077503
H       -1.054550459     -0.749669747     3.0293892113
O      -3.0977146896    -1.7120971319    -1.7644458763
H      -3.3248971247    -1.5208540563    -2.6775473871
H      -3.7366413166    -2.3550155965    -1.4465652896
O       0.1624275284      2.303111764     0.7866759697
H       0.2716603104     3.0724921115     0.2216757912
H       0.1267468481     2.6274184469     1.6904916611
O       2.0492613402    -0.4470761343      0.126977232
H       2.4536771214    -1.1650246942    -0.4901697627
H       2.6425763005     0.3065890444     0.1947977921
O      -2.0897174961    -0.0676816842    -0.1662575651
H      -2.5264652152    -0.7078962146    -0.8439570211
H      -2.5416222325     0.7810719733    -0.1706554779
