19
    file 'w6s16.log' at: ---' #p wB97XD gen pseudo=Read opt freq'---
Hg      0.3195671385     0.1562249387     0.2693923457
O       1.9441300193      1.795224006      0.139576754
H       2.5298013378     1.9117813382     0.8946509394
H       1.8240716756     2.6595221899    -0.2663255024
O      -2.8905755573     2.3907274428     0.5440996468
H      -3.3531509548     2.8182651425     -0.180066699
H      -3.3543228556      2.642501468     1.3463593407
O       1.6563280333    -0.5410440901      2.101113319
H       2.3039653669    -1.2448187638     1.9992400631
H       1.3561483038    -0.5700442015     3.0145868903
O       1.8652906357    -1.0108914405    -0.9945870342
H       1.6713521231    -1.7899729469    -1.5248098731
H       2.5814214866    -0.5375747902    -1.4293613952
O      -1.7513319447     0.1067687463     0.4375183343
H       -2.251685146     0.9833007026     0.4386736977
H      -2.2471311924    -0.6246827397    -0.0489367057
O      -2.8690954299    -1.8630315838    -0.7479037532
H       -3.335514157    -1.8159647827    -1.5854832292
H      -3.3292128829    -2.5203986357    -0.2203061389
