19
    file 'w6s23.log' at: ---' #p wB97XD gen pseudo=Read opt freq'---
Hg       0.483666928    -0.0504958911     0.0304244859
O      -0.8760662869      1.784784782     0.1910092542
H      -0.5831204062     2.6728806441    -0.0274990841
H      -1.8525470404     1.7384136928     0.0695321938
O      -3.0333588096    -1.2926217461     0.3958321149
H      -3.4721933977    -0.4585932738     0.1790510266
H        -3.69781833    -1.9446032357     0.6273642779
O       1.5132110903     0.0116424024     2.1487591776
H       1.8301020534    -0.7788945073     2.5969992006
H        1.245533069     0.6300433133     2.8354645901
O       -0.700583419    -1.7828964567    -0.3449150637
H      -1.6917253085    -1.6564245465    -0.1127735886
H      -0.5993397952    -2.2845558828    -1.1591842415
O       2.3375362498     1.0514831249    -0.6304287103
H       3.0854848587      1.108388715     -0.026445297
H       2.6825315554     1.0633935482    -1.5293041881
O      -3.5622010169     1.4751341709    -0.0724585255
H      -3.9917774429     1.7495401025    -0.8883358028
H      -4.0791555511      1.873373044     0.6348471801
