19
    file 'w6s8.log' at: ---' #p wB97XD gen pseudo=Read opt freq'---
Hg      0.3449705217    -0.3630390365    -0.0765560695
O      -3.6637635882       0.54800967     0.6356164162
H      -4.4809780143     0.1494788107     0.0998590281
H      -3.9045743721     0.8175202999     1.5277598197
O      -5.5448158364    -0.3428938602    -0.6839376942
H      -6.1849242843    -0.9865212609    -0.3710245585
H      -5.9841938513      0.217553154    -1.3284271214
O      -1.4778903922    -0.7359246507     0.6286099399
H      -2.7926545542     0.0128481291     0.6182656797
H      -1.5759840503    -1.6689611944     0.8354329348
O         4.20441469     0.3451918462     0.5025261213
H        4.786154159    -0.3334609924     0.8533464135
H       4.7490028226     1.1155173396     0.3231539483
O       0.6883244285     2.0055773788      0.765373765
H       0.6881202575     2.2971903362     1.6795361358
H       0.8227611391     2.7924050885     0.2326663561
O       2.2124306609    -0.1399024349    -0.9331409524
H       3.0441683037     0.0422298889    -0.3499628248
H       2.4489619604    -0.7064185122    -1.6736873375
