  10
   W3At                            
At      -1.4425820000     -0.0016300000     -0.0009710000
O        2.1828960000     -1.6416110000      0.7067322000
O        2.1810030000      1.4334640000      1.0689949000
O        2.1823790000      0.2103680000     -1.7742216000
H        2.3391120000     -1.3484380000     -0.1817261000
H        1.2377810000     -1.6140270000      0.7886040000
H        1.2359970000      1.4899850000      1.0018466000
H        2.3371320000      0.5177020000      1.2605479000
H        1.2373380000      0.1246210000     -1.7906349000
H        2.3383860000      0.8338670000     -1.0766239000
