  13
   W4At                               
At       1.2300320000     -0.0003840000     -0.0008921000
O       -2.2622630000     -1.1954680000      1.7645451000
O       -2.2628710000      1.7645460000      1.1972168000
O       -2.2645390000     -1.7644990000     -1.1959893000
O       -2.2641530000      1.1956900000     -1.7629928000
H       -2.4557290000     -1.4942610000      0.8830128000
H       -1.3165830000     -1.1256630000      1.7732903000
H       -2.4548950000      0.8824540000      1.4953504000
H       -1.3172770000      1.7747000000      1.1267910000
H       -2.4569690000     -0.8824320000     -1.4939249000
H       -1.3188650000     -1.7745090000     -1.1263324000
H       -2.4562030000      1.4942170000     -0.8810516000
H       -1.3184780000      1.1256170000     -1.7732193000
