  16
   W5At                               
At       1.4676760000      0.0361320000      0.1253558000
O       -1.9460310000     -0.9662420000     -1.9449755000
O       -0.9734530000      3.0521000000     -0.1144911000
O       -2.1757340000     -0.4137460000      2.0014542000
O       -3.3262050000      1.1241610000     -0.2901532000
O       -1.5288290000     -2.8457550000      0.3823174000
H       -1.0671660000     -0.6214560000     -1.8561236000
H       -1.9635890000     -1.6936030000     -1.3333390000
H       -0.3062870000      2.3976930000     -0.2959003000
H       -0.8433080000      3.2610210000      0.7967735000
H       -2.6570560000      0.0999460000      1.3606778000
H       -1.2683280000     -0.1727930000      1.8672752000
H       -2.6928380000      1.8310570000     -0.3122505000
H       -3.0119930000      0.4918000000     -0.9275822000
H       -0.6048490000     -2.6395400000      0.3444594000
H       -1.8767960000     -2.2154620000      1.0041161000
