13
    file 'w4s1.log' at: ---' #p UHF gen pseudo=Read opt freq'---
H       1.1420065211    -0.6344120244    -2.5742432354
O       1.4655202797    -0.3862486505    -1.7182045434
H       2.4126183308    -0.4063824507    -1.7568014705
H      -2.4373374109    -1.2060607832     0.1756925726
O      -1.9935973584     -0.464396164    -0.2142749967
H      -2.6279016915    -0.0030720162    -0.7469333275
H       1.3840403218    -1.9374986844      1.850340399
O       1.1094165537    -1.0300629032     1.8559374603
H       1.3022181005    -0.6812959662     2.7163064967
H       -0.401806702     2.8387587269     1.0916738729
O       0.1847702599     2.3716858563     0.5114512556
H       0.7591335354      3.012670925     0.1135912816
Hg      0.1910667291     0.1221882138     0.1091547298
