13
    file 'w4s3.log' at: ---' #p UHF gen pseudo=Read opt freq'---
H        4.533285184     1.3800885584    -0.3522309459
O       4.1172743775     0.7016097274     0.1582042063
H       4.7012019354     0.4602020028     0.8610757718
H      -0.1139664991    -0.8846564899     1.4332162823
O      -0.2125492871    -0.5487458601     0.5551819679
H       1.3562624726    -0.5564187856    -0.2222694805
H      -4.4449892822     1.3401136358    -0.1025644006
O      -4.0559377404      0.489541304    -0.2710255693
H      -4.7187058921    -0.0941752523    -0.6221645489
H       2.9973095764    -0.0642133477    -0.3157633526
O       2.2010526992     -0.587974976    -0.7025635684
H       2.4224404303    -1.4574723372    -1.0146836363
Hg     -2.0816069745    -0.0550391794     0.1893472739
