13
    file 'w4s4.log' at: ---' #p UHF gen pseudo=Read opt freq'---
H       3.2953207624     -3.066028966     0.0135454682
O       3.1297557198    -2.2019568095     0.3610920055
H       3.8564082491    -1.9785703543     0.9240519814
H       -2.973188141    -0.0095843319     0.2241973224
O      -2.1097116294     0.3424113926      0.622337436
H      -2.2779987581     0.9388818616     1.3408251169
H       -4.758771743    -0.0705569751    -0.9826206124
O      -4.1937910562    -0.5619731656    -0.4045602916
H      -4.7117246445    -1.2561470911    -0.0241770986
H       2.0298779343    -0.0929981015    -1.4585925731
O        1.628018389    -0.5301479253    -0.7185021718
H       2.2596994485    -1.2034487672    -0.2994065657
Hg     -0.2389897462    -0.0855931178    -0.0483043175
