16
    file 'w5s2.log' at: ---' #p UHF gen pseudo=Read opt freq'---
H      -5.5111575395    -1.1176762944     0.4098054046
O      -4.9589152204    -0.7218011012    -0.2466103452
H      -5.3345556152     -0.904583187    -1.0943659017
H       3.4812984647     1.5520458173    -0.1604447239
O       2.9887374027      0.743814688    -0.1888628223
H       3.5666889178    -0.0124620634    -0.4675855513
H      -3.9316836512      0.302097687     -0.023365584
O      -3.2287943977      1.030846556     0.0821524198
H      -3.5675376253      1.836187305     0.4542807673
H       4.6205901702    -1.4615220472    -1.7958603493
O       4.4109418703    -1.2505030292    -0.8991313385
H       5.0534376176    -1.6785078182     -0.354493784
H      -2.3529387327     0.7740273686     0.4413087606
O       -0.833942345     0.4167468066     1.0271601762
H      -0.9085879023     0.0410533966     1.8905371057
Hg      1.0489795862     0.5643329155     0.4605477665
