16
    file 'w5s3.log' at: ---' #p UHF gen pseudo=Read opt freq'---
Hg       0.497887789    -2.4886430526     1.3888290497
O       1.9736706022    -3.5669032967     0.4873259386
H       2.1016988396    -3.6598901097    -0.5054158582
H       2.6341832009    -4.0500107643      0.966227695
O      -0.9600635652    -1.4234099572     2.2636991474
H       -0.848085011    -0.4797698584     2.5289081914
H      -1.8219368622    -1.8186152074     2.5361415324
O      -3.1568841623    -2.5876463192     2.9061302284
H      -3.3833756237    -2.8745600494     3.7774174983
H      -3.9670585928    -2.4944593786     2.4289084644
O       -0.525646498     1.0293952711     2.8864793124
H      -0.8662480199     1.7681294243     2.4057751584
H      -0.3179689739     1.3394032536     3.7545424025
O       2.2320974839    -3.7544242957    -2.0045604069
H       1.9755325244    -4.5101390622    -2.5116050175
H        2.875684869    -3.2811325976    -2.5103443361
