16
    file 'w5s4.log' at: ---' #p UHF gen pseudo=Read opt freq'---
Hg     -0.1025728008     0.6370986347     1.8716544932
O       1.7680889992     0.3148247301     1.0176277868
H       2.2318525118      0.919772998      0.382574871
H       2.2928891842    -0.4528128051     1.1965477246
O      -1.9573919825     1.3788323931     2.4566178765
H      -2.3662669315     2.2313794683     2.1561326643
H      -2.5281459169     0.9258979688     3.0614278041
O      -0.1801561151    -1.4223048278     3.1939558373
H       0.1303837872    -1.5393383008     4.0809632695
H      -0.5271114641    -2.2598926455     2.9201257594
O      -2.9417083219      3.584949884     1.6373701857
H      -3.6163343464     3.6580857462     0.9797261983
H       -2.959407758     4.3831846046     2.1428126422
O       2.8961055251     1.9219998993    -0.6107057963
H       3.5959646911     2.5133823931    -0.3795537197
H       2.9389729387      1.793656859    -1.5459355968
