16
    file 'w5s6.log' at: ---' #p UHF gen pseudo=Read opt=(MaxCycle=150) freq geom=check'---
Hg      1.2148763387     -2.045804983    -0.5932619655
O      -2.5726843529    -0.1203883515      -1.16193313
H      -2.9495817673    -0.2085805151    -2.0287915641
H      -3.2518520599     0.1213904898    -0.4516250765
O      -4.2364245507     0.5540715425     0.5745700793
H      -5.0200371946      0.095022098     0.8342880247
H      -4.3002882852      1.441278227     0.8934207697
O       2.1779646732      -4.38015678    -0.1164509782
H       2.2346788301    -4.7888314732     0.7350931083
H       2.2480614177     -5.082558216    -0.7466382432
O      -0.7756435937    -1.9357022525    -0.6597988121
H       -1.173385235    -2.7681923331    -0.4603259697
H      -1.9095583434    -0.8204566095    -0.9467800593
O       3.3252245995    -1.7446801184    -0.6130021212
H       3.8119596274    -0.9448776599    -0.7616434099
H        3.921579896    -2.4675920649    -0.4675696523
