16
    file 'w5s7.log' at: ---' #p UHF gen pseudo=Read opt freq'---
Hg      0.5030954972     0.2251466532     0.1956385795
O      -1.0611020163     1.3372868174    -1.1180660717
H      -1.9940537988     1.1734286367    -1.1185506697
H      -0.9106659527       2.10323935    -1.6547976464
O       1.2478734907    -1.2503905659    -1.4095581624
H       2.0013771996    -1.8213046414    -1.3482648716
H        0.928684005    -1.2972642299    -2.3002623983
O       4.3169472977     0.8369484187     1.8166487759
H       4.6535382157      0.460149449     2.6147574779
H       5.0392258326     1.2846553051     1.4042018837
O       1.8085487109     1.4454583237     1.4318399456
H       2.7530211078     1.2561209669     1.6032846584
H       1.5633873399     2.2482666958     1.8676725743
O      -0.9668129658    -1.2350917119     1.2452598966
H      -1.3398113045    -1.1362931933     2.1104064536
H      -1.1978732224    -2.1004963908     0.9375072026
