16
    file 'w5s8.log' at: ---' #p UHF gen pseudo=Read opt freq'---
H      -0.7819149587     2.8121176609     -0.622013321
O      -0.0149601161     2.2743134609    -0.4866059304
H       0.7451815455     2.8215835888     -0.622493959
H       3.0420290868     0.0205386313      0.047075967
O       2.3214925865     0.0172731125    -0.5669616175
H       2.6994237653       0.02205622    -1.4349761112
H      -0.0055642118     0.7530608902     2.8984746388
O      -0.0004814873    -0.0070117327     2.3340365006
H       0.0047044062    -0.7704712849     2.8938834878
H      -3.0423827545    -0.0208873868      0.047716481
O      -2.3219999718    -0.0142424566    -0.5664757617
H      -2.7001281237    -0.0143070798    -1.4344190852
H      -0.7439231312    -2.8192029767    -0.6372315839
O       0.0157286858    -2.2719412062    -0.4985885593
H       0.7831572012    -2.8082283219    -0.6372795979
Hg     -0.0003408592    -0.0000629689    -0.0114118662
