16
    file 'w5s9.log' at: ---' #p UHF gen pseudo=Read opt freq'---
Hg      0.5793728347    -0.0627245914    -0.0751163665
O      -2.9696949092    -2.1929818263    -0.0418452878
H      -3.3886709388    -2.5631070859     0.7194758776
H      -3.4119514321     -2.548358366    -0.7970028173
O      -1.5151596244    -0.0507965353    -0.0435902301
H      -1.9857765912     0.7837520483    -0.0269207556
H      -2.1111610173    -0.8302314818    -0.0418242818
O        2.554400049     -0.935090549    -0.1143789106
H       2.7425444094    -1.8659186979    -0.1300546396
H       3.3766683641    -0.4604392758    -0.1181168456
O       0.6431671808     2.2565648098    -0.0505226157
H      -0.1878853139      2.722129797    -0.0326579166
H       1.3460820623      2.889633729     -0.054982743
O      -2.2238952562     2.6425990048    -0.0028218257
H      -2.6363705011     3.0183828755     0.7616071925
H      -2.6590523163     3.0349971451     -0.746034834
