19
    file 'w6s13.log' at: ---' #p UHF gen pseudo=Read opt freq'---
Hg     -0.0062936237     0.1691237683     0.3911324085
O       2.8311449922    -2.4017776585    -1.4003983254
H       3.2009904583    -3.1869832127    -1.0287628878
H       3.1026113358    -2.3756591356    -2.3042774004
O      -0.2388451807     -0.607418745     2.6384066575
H       0.4569996861     -0.923976877     3.1958180277
H      -1.0522428775     -0.774660015      3.091763832
O      -3.0031522854      -1.83000774     -1.821620698
H      -3.1350455806    -1.7629175029    -2.7540782656
H       -3.565060667    -2.5251654695    -1.5175476243
O       0.1785933293     2.4932829938       0.96004294
H       0.2876971266     3.2260133591      0.371174007
H       0.1544071978      2.847353071     1.8372758561
O       2.0713263974    -0.3252435747     0.0024853163
H       2.3839724952    -1.0890380695    -0.5195582383
H       2.7972833079     0.2556416568     0.1737127531
O      -2.0637144456     0.0783102791    -0.2944205863
H      -2.4406100765    -0.6174279387    -0.8667929944
H      -2.6822992396      0.788900401    -0.2159253875
