19
    file 'w6s18.log' at: ---' #p UHF gen pseudo=Read opt freq'---
H       3.6992010985     -2.292960088     0.4352618055
O       3.1669170488    -1.9656933249    -0.2721673193
H       3.5936792477    -2.2255590999    -1.0729094939
H       2.0657262872    -0.7093510399    -0.1385404182
O       1.3719045267    -0.0351879252    -0.0574517928
H        1.733354608     0.8452821758    -0.0878987082
H      -1.8435837497    -1.4865110415     2.6303107384
O      -2.0270405174    -1.4098467658      1.704399916
H       -2.827351607     -1.884147378     1.5282846628
H       2.0514435769       3.26922785     0.6540730242
O       1.6065978716     2.8327582668    -0.0574101921
H       1.8713626641     3.2903249933    -0.8416802159
H      -0.3335167798     2.5328284492     0.1763272906
O      -1.0973745333     1.9680646135     0.2589729152
H      -1.8490446207     2.4938840954     0.4864620543
H      -2.7416405979    -0.7175974847    -2.0697400944
O      -2.1136737306    -1.2047387407    -1.5547896118
H      -1.9820095353    -2.0356159539    -1.9896202475
Hg     -0.7715912581    -0.3188616016     0.1362556873
