19
    file 'w6s1.log' at: ---' #p UHF gen pseudo=Read opt freq'---
Hg     -0.0001459539    -0.0208341707      0.008304416
O       6.0217746162    -0.4025151968      0.388172441
H       6.5673220254     -0.910903601    -0.1907222243
H       6.4653475672    -0.3396011144     1.2194796572
O      -6.0226577296    -0.4241295099    -0.3390522385
H      -6.5687672403    -0.8824517205     0.2797408535
H      -6.4662774019    -0.4292883989    -1.1726960687
O      -4.0283482495     1.0584300208     0.1343030813
H      -4.2584872302     1.8263268147     0.6413124747
H       -4.807980819     0.4543966554    -0.0279497784
O       4.0296169256     1.0388403181    -0.2059868396
H       4.8083923151     0.4491209446     0.0055909415
H       4.2608208366     1.7619576637    -0.7746130332
O       1.8211325288    -0.0254547596    -0.7903456021
H       3.1586834929     0.5927965686     -0.447532295
H       1.8832286923    -0.5837467372    -1.5479065785
O      -1.8213845963     0.0428341554     0.8045289575
H      -3.1580194383     0.6325784054     0.4118586476
H      -1.8842263412    -0.4511273378      1.605464188
