19
    file 'w6s11.log' at: ---' #p UHF gen pseudo=Read opt freq'---
Hg      0.4317971223     0.0357539643    -0.7331464112
O       0.9983481509    -0.4586279991     1.5394478507
H       0.3973283976    -0.9760524244     2.0622691712
H       1.7658727336    -0.2839813936     2.0627247528
O      -1.4259041756    -2.0464410791      2.096458293
H      -1.3465661756     -2.972793004     2.2710135395
H      -2.0774338856    -1.7250191472     2.7022818561
O      -3.1011654985    -1.3673075645    -2.3381047913
H      -3.2060013736    -2.1350685949    -2.8777195981
H      -3.9107528999    -0.8841382666    -2.3897443897
O       1.9606322585     1.2339236049    -1.5120140914
H       2.1691230188     1.3299912261    -2.4731269983
H       2.4937975126     1.8228455503    -0.9976501054
O      -1.2941742662    -1.0988350439    -0.4850637136
H      -2.0019186785    -1.2245144574    -1.1484144132
H      -1.4979373874     -1.503046088     0.3622837426
O       2.4454216691     1.4157504729    -4.0235593315
H       3.1681216782     0.9869686407     -4.455333318
H       2.1810247992     2.1353066036    -4.5756270443
