19
    file 'w6s14.log' at: ---' #p UHF gen pseudo=Read opt freq'---
Hg      0.0895073628     0.0036749347    -0.5242917048
O      -3.1315458423    -1.1966275661     1.6252064082
H      -3.7941731445    -1.8331023617     1.3995842218
H      -3.3675616639    -0.8750431803     2.4830916715
O       1.8571347845       1.28482928     -0.610099811
H       1.8292964603     2.2540143376    -0.7181429545
H       2.7338334564     1.0239814289    -0.3708574843
O      -0.4038349861    -1.6654306505     0.9559430208
H       -1.271501201    -1.7211342751     1.3495493915
H       0.1560948377    -2.3220303382     1.3422409055
O       0.3284463028    -1.1393900845    -2.5693408353
H      -0.1784573802    -1.8809209165    -2.8667659318
H       0.9473000024    -0.9314292599    -3.2543329925
O      -2.1017052942     0.5669255226    -0.3413695595
H      -2.6705912067     0.1142715589      0.277945444
H      -2.5899765936     1.2493185999    -0.7768693452
O       1.6670524029     3.8829683529    -0.9265456276
H       1.7243776952     4.5175926562    -0.2297457468
H       1.9012452756       4.33422449    -1.7222808141
