19
    file 'w6s12.log' at: ---' #p UHF gen pseudo=Read opt freq'---
H      -3.6908628958     2.9364692392    -0.7540615503
O      -3.2534177659      2.580891669     0.0034705098
H      -3.6864296422     2.9392909099     0.7622152131
H       2.5523211643     2.2219979391    -0.0128766897
O       2.3185931821     1.3046788405    -0.0099523884
H       3.1279169848     0.7422560656    -0.0103014845
H       -2.175819481     -0.379750256     0.0051904116
O      -1.7304174198     0.4706733208     0.0013898674
H       -2.348763382     1.2283272687      0.002538125
H      -0.3892491156    -2.2840667534     0.0061731273
O       0.4220767158    -1.7898317794     0.0029482899
H       1.1433842526    -2.4004098501     0.0032036691
H       4.9226901892    -0.3867448283     0.7474105218
O       4.3751149226    -0.2483047058    -0.0102553377
H       4.9189398961    -0.3908484593    -0.7698606043
H      -2.9254006736    -2.5545442616     0.7668201081
O      -2.4987921793    -2.1788860892     0.0106907433
H      -2.9287098885    -2.5577999744    -0.7419334788
Hg      0.3502671363     0.5859017044    -0.0034070525
