19
    file 'w6s21.log' at: ---' #p UHF gen pseudo=Read opt freq'---
Hg      0.0894217587      0.075468114     0.0803361804
O       -1.159524838     1.7568410579    -1.1193366412
H      -1.6225980736     1.6840038498    -1.9403959107
H      -1.4568578786     2.5548967336    -0.7083028808
O      -1.8993454178    -1.1500973863     0.6876685512
H      -2.5811664389    -0.9161987574     1.2994628641
H      -2.2372948354    -1.8585705473      0.160312055
O         0.05594762     1.6653854395     1.8959864164
H      -0.4428196026     1.6443109204     2.6988986175
H       0.7354943898      2.312358859     2.0138443016
O        0.264927193    -1.5341665351    -1.7096095618
H       0.7433700556    -2.3444198813    -1.6156390341
H       0.1014459391    -1.4195351888    -2.6337382973
O       1.2452294603    -1.5897530913     1.3906265406
H       0.7858278571    -2.2511005374     1.8864278366
H       2.1410909145    -1.5955414511     1.6927526242
O       2.0286318154     1.3048922945    -0.6639443801
H       2.9403230054     1.0560991241    -0.6356212876
H       1.9646874061     2.0399770928    -1.2553917941
