19
    file 'w6s5.log' at: ---' #p UHF gen pseudo=Read opt freq'---
Hg     -0.0001185259    -0.0589866271     0.0002996719
O       -2.011233418    -0.0588672793     0.0209819404
H      -2.5415852183    -0.6466944558      0.602897692
H       -2.553423307     0.5295711013    -0.5492756488
O      -3.2677921053     -1.663314603     1.6066424181
H       -3.680819804    -2.4694956697     1.3388872013
H      -3.6689239898    -1.4081629234     2.4228541099
O       2.0109928997    -0.0592768947    -0.0204121154
H       2.5410882234    -0.6440164236    -0.6056698104
H       2.5534887297     0.5255938962     0.5532123867
O       3.3010164238     1.5365137581       1.54717346
H       3.7190126267     1.2765624791     2.3533446973
H       3.7085363431     2.3442046424     1.2755702206
O       3.2677879849     -1.654126194    -1.6155803534
H       3.6691934039    -1.3937849702    -2.4300181245
H       3.6807479288    -2.4619749414    -1.3527925424
O      -3.3009956724     1.5467879763    -1.5366825581
H      -3.7193212734     1.2919193295    -2.3443066392
H        -3.70829825     2.3528387992    -1.2599240059
