19
    file 'w6s6.log' at: ---' #p UHF gen pseudo=Read opt freq'---
Hg     -0.1231604533     0.8642891948     0.1773485187
O      -0.6742494626     3.2751267435    -0.7256809502
H      -0.5938080608      3.567579978    -1.6211149745
H      -0.7573207982     4.0593490483    -0.2042069153
O      -2.1853636081     0.7654978808    -0.0437037337
H       -2.783362208     0.0186887093     0.1718730671
H      -2.6662476657     1.5175855551    -0.3560869134
O         1.84274619     0.7061073327     0.4764020423
H       2.2901120727     1.5082566457      0.260265899
H       2.8489359002    -0.3888514749     0.9557560128
O      -3.7101189136    -1.2451938706     0.5432562083
H      -4.2300642915    -1.3192690275     1.3278321117
H      -4.0772333946     -1.843315106    -0.0883153373
O       3.4604314695    -1.1010373949     1.2923045504
H       4.2064659928    -1.3996516809     0.6880788019
H       3.7396443638    -0.9704399237       2.18981354
O       5.3125976727    -1.9227272638    -0.1957286109
H       6.1319498765    -1.4961234507    -0.3916781519
H       5.3875513183     -2.826657895    -0.4595661651
