   16 
w5s1 opt at ZORA-SR  PBE/QZ4P
   H	-3.140112	1.767822	-0.533658
   O	-3.01452	0.801434	-0.526302
   H	-3.967637	0.222774	-0.295497
   H	3.108098	-1.739833	-0.448983
   O	2.915499	-0.784015	-0.466027
   H	3.846794	-0.168808	-0.288781
   H	-5.452268	-0.886466	-0.884401
   O	-5.012879	-0.522062	-0.094082
   H	-5.709438	-0.207572	0.510206
   H	-0.826495	0.221713	1.731537
   O	-0.776907	0.228521	0.757296
   H	-2.179787	0.561695	-0.003049
   H	5.348455	0.885991	-0.950666
   O	4.8775	0.624	-0.137551
   H	5.552584	0.386832	0.5247
   Hg	1.061255	-0.286335	0.223469
   16 
w5s2 opt at ZORA-SR  PBE/QZ4P
   H	-5.614999	-0.839241	0.480004
   O	-4.912331	-0.734774	-0.186639
   H	-5.327991	-0.804901	-1.065693
   H	3.388546	1.473359	-0.066736
   O	2.912397	0.678556	-0.371427
   H	3.617816	-0.18153	-0.55859
   H	-4.026389	0.201539	-0.0309
   O	-3.201354	0.98537	0.024118
   H	-3.495654	1.828247	0.415384
   H	4.695428	-1.28583	-1.757843
   O	4.364804	-1.222216	-0.842267
   H	5.109655	-1.434556	-0.250144
   H	-2.313749	0.704207	0.426938
   O	-0.8446	0.314549	1.009772
   H	-0.84075	-0.047709	1.915602
   Hg	1.031733	0.479026	0.393492
   16 
w5s3 opt at ZORA-SR  PBE/QZ4P
   Hg	0.360225	-2.40229	1.235042
   O	1.794217	-3.525087	0.360687
   H	2.095086	-3.592123	-0.796134
   H	2.513353	-3.787719	0.964869
   O	-1.121562	-1.311741	2.014717
   H	-0.868056	-0.367022	2.45013
   H	-1.930877	-1.836414	2.483402
   O	-3.017406	-2.593421	2.980639
   H	-3.159594	-2.707315	3.93691
   H	-3.895962	-2.45927	2.5824
   O	-0.475587	0.917006	2.907799
   H	-0.88526	1.698703	2.495958
   H	-0.402203	1.111266	3.858892
   O	2.325703	-3.691691	-1.993896
   H	2.253691	-4.592645	-2.365535
   H	3.157249	-3.295095	-2.318853
   16 
w5s4 opt at ZORA-SR  PBE/QZ4P
   Hg	-0.618573	1.271077	1.404963
   O	1.218942	0.503333	1.571586
   H	1.895582	0.65894	0.755374
   H	1.322679	-0.430913	2.084302
   O	-2.434912	2.141524	1.277191
   H	-2.909897	3.041445	1.92298
   H	-3.089851	1.621778	0.776731
   O	1.396603	-1.610222	2.869733
   H	1.952245	-1.598361	3.669615
   H	1.5251	-2.482247	2.456191
   O	-3.323983	3.989932	2.558133
   H	-3.580785	4.773546	2.03448
   H	-4.03194	3.810881	3.206617
   O	2.77516	1.00158	-0.300592
   H	3.585791	1.497137	-0.087036
   H	3.015728	0.358774	-0.990684
   16 
w5s5 opt at ZORA-SR  PBE/QZ4P
   Hg	-0.803771	-2.720669	0.810866
   O	0.963598	-3.700049	2.288251
   H	1.368089	-4.57915	2.187215
   H	1.163557	-3.420571	3.198503
   O	-2.290534	-2.701193	2.233434
   H	-2.828425	-3.634898	2.591421
   H	-2.92696	-1.971795	2.108147
   O	-3.366554	-4.724782	3.067212
   H	-4.224712	-5.0151	2.705078
   H	-3.427409	-4.78863	4.03913
   O	0.543268	-2.651001	-0.740649
   H	0.119212	-2.591472	-1.617529
   H	1.497401	-2.030957	-0.713852
   O	2.620622	-1.380507	-0.623701
   H	3.428282	-1.884868	-0.837068
   H	2.690955	-0.51938	-1.076856
   16 
w5s6 opt at ZORA-SR  PBE/QZ4P
   Hg	1.842919	-1.363538	-0.72119
   O	-2.172542	-0.481679	-1.103305
   H	-2.559042	-0.741286	-1.959094
   H	-2.943091	-0.326965	-0.299582
   O	-3.780047	-0.05792	0.685393
   H	-4.599676	-0.576006	0.775171
   H	-4.011413	0.878317	0.827659
   O	0.101408	-4.415297	-0.015654
   H	-0.150751	-4.766289	0.855348
   H	-0.100409	-5.121649	-0.652282
   O	-0.04234	-1.893711	-0.624353
   H	-0.057465	-2.888909	-0.384878
   H	-1.361899	-1.065044	-0.881338
   O	3.825073	-0.653349	-0.858218
   H	4.392979	-1.004649	-1.57468
   H	4.361186	-0.618084	-0.039448
   16 
w5s7 opt at ZORA-SR  PBE/QZ4P
   Hg	0.639842	0.184336	0.458772
   O	-0.820127	1.095369	-1.220018
   H	-1.783336	1.006748	-1.093721
   H	-0.681431	1.992698	-1.576511
   O	0.903507	-1.48739	-1.174676
   H	1.741948	-1.976412	-1.277425
   H	0.634993	-1.216406	-2.073637
   O	4.342486	0.972822	1.759642
   H	4.660048	0.760344	2.656771
   H	4.987523	1.598881	1.380223
   O	1.985761	1.561647	1.358437
   H	3.025886	1.294392	1.591844
   H	1.59904	2.057625	2.104635
   O	-1.147246	-1.194183	0.939489
   H	-1.468026	-1.301916	1.855719
   H	-1.069752	-2.092849	0.564436
   16 
w5s8 opt at ZORA-SR  PBE/QZ4P
   H	-0.889373	2.619878	-0.501695
   O	-0.119755	2.200465	-0.071414
   H	0.675328	2.642706	-0.426151
   H	2.928258	0.006158	-0.13134
   O	2.183465	0.158704	-0.741858
   H	2.514212	-0.053981	-1.633809
   H	0.145205	0.738826	2.827422
   O	0.348516	-0.059838	2.305953
   H	0.143386	-0.822332	2.878315
   H	-3.079623	-0.040991	-0.462362
   O	-2.267238	0.143221	-0.969604
   H	-2.462549	-0.107579	-1.891612
   H	-0.85667	-2.933504	-0.250236
   O	-0.078759	-2.426014	0.05054
   H	0.704951	-2.910194	-0.272109
   Hg	-0.088188	-0.109306	-0.010653
   16 
w5s10 opt at ZORA-SR  PBE/QZ4P
   Hg	-0.400133	-0.446224	-0.276346
   O	3.173836	0.878717	-0.539526
   H	3.72002	1.275132	0.166314
   H	3.697171	0.989773	-1.35595
   O	-1.703056	-0.796037	1.705994
   H	-2.202685	-0.049971	2.0893
   H	-1.2823	-1.244702	2.464302
   O	0.638528	1.471917	-0.420387
   H	1.647034	1.359054	-0.555015
   H	0.297802	2.127788	-1.058382
   O	1.689692	-1.458795	0.104306
   H	1.89474	-2.368869	-0.177742
   H	2.454585	-0.888294	-0.145927
   O	-1.796163	-2.046469	-0.969236
   H	-2.142906	-2.03685	-1.883279
   H	-2.558854	-2.178175	-0.37087
