   16
w5s1 opt at ZORA-SR+SO  PBE/QZ4P
   H	-3.135368	1.771715	-0.522905
   O	-3.005762	0.80579	-0.522176
   H	-3.95907	0.222393	-0.299165
   H	3.09097	-1.736306	-0.441757
   O	2.901825	-0.779726	-0.45318
   H	3.840012	-0.162818	-0.287552
   H	-5.435626	-0.88924	-0.901294
   O	-5.001336	-0.52672	-0.107009
   H	-5.701808	-0.220099	0.497106
   H	-0.825172	0.223302	1.749002
   O	-0.773979	0.231701	0.774858
   H	-2.174871	0.566495	0.006538
   H	5.336656	0.874479	-0.969748
   O	4.869918	0.621651	-0.151213
   H	5.547538	0.385337	0.509172
   Hg	1.056215	-0.282265	0.237532
   16
w5s2 opt at ZORA-SR+SO  PBE/QZ4P
   H	-5.604121	-0.839895	0.472347
   O	-4.898663	-0.738576	-0.192209
   H	-5.310966	-0.811696	-1.072749
   H	3.379012	1.467635	-0.052032
   O	2.901409	0.674311	-0.357441
   H	3.606367	-0.187903	-0.556968
   H	-4.015308	0.198937	-0.037236
   O	-3.190252	0.983765	0.017388
   H	-3.487093	1.830688	0.397394
   H	4.669984	-1.281137	-1.770078
   O	4.34852	-1.222778	-0.850954
   H	5.10016	-1.434171	-0.26695
   H	-2.306535	0.706204	0.429753
   O	-0.840849	0.313504	1.024157
   H	-0.83884	-0.022187	1.940239
   Hg	1.029734	0.477397	0.410412
   16
w5s3 opt at ZORA-SR+SO  PBE/QZ4P
   Hg	0.367519	-2.389813	1.23544
   O	1.867008	-3.409253	0.361359
   H	2.028505	-3.671695	-0.8005
   H	2.33758	-4.011215	0.967105
   O	-1.11188	-1.312007	2.020593
   H	-0.856015	-0.378078	2.483071
   H	-1.93859	-1.837709	2.456235
   O	-3.039461	-2.598124	2.915662
   H	-3.19844	-2.728195	3.867238
   H	-3.910044	-2.445208	2.506773
   O	-0.46521	0.889226	2.969043
   H	-0.865916	1.682317	2.570512
   H	-0.3907	1.064086	3.923764
   O	2.197816	-3.858414	-1.992823
   H	2.082943	-4.773256	-2.316993
   H	3.030948	-3.505734	-2.36302
   16
w5s4 opt at ZORA-SR+SO  PBE/QZ4P
   Hg	-0.63615	1.234858	1.446637
   O	1.216889	0.510294	1.529373
   H	1.883966	0.743165	0.723411
   H	1.358544	-0.447817	1.991457
   O	-2.495783	2.00529	1.468385
   H	-2.901563	3.014341	1.992686
   H	-3.063924	1.68402	0.744222
   O	1.481505	-1.657534	2.71033
   H	2.049893	-1.671595	3.500957
   H	1.621362	-2.50458	2.251472
   O	-3.287901	3.997687	2.588777
   H	-3.539471	4.769177	2.044652
   H	-3.995677	3.843327	3.244711
   O	2.735123	1.179672	-0.319638
   H	3.534263	1.684337	-0.084928
   H	2.986693	0.583082	-1.046568
   16
w5s5 opt at ZORA-SR+SO  PBE/QZ4P
   Hg	-0.793279	-2.698549	0.778496
   O	0.633647	-3.947996	2.420562
   H	1.167628	-4.733518	2.209705
   H	1.045462	-3.554927	3.209892
   O	-2.288279	-2.690439	2.178477
   H	-2.725379	-3.640474	2.638811
   H	-2.991947	-2.04188	1.988415
   O	-3.153923	-4.71744	3.215036
   H	-4.013776	-5.079491	2.929903
   H	-3.152332	-4.711317	4.19067
   O	0.574014	-2.618524	-0.747158
   H	0.157906	-2.628346	-1.629879
   H	1.482217	-1.931466	-0.746655
   O	2.572856	-1.225767	-0.698435
   H	3.394977	-1.681204	-0.960554
   H	2.578821	-0.349132	-1.126423
   16
w5s6 opt at ZORA-SR+SO  PBE/QZ4P
   Hg	1.828764	-1.370428	-0.717176
   O	-2.165215	-0.474913	-1.104553
   H	-2.553126	-0.723386	-1.96299
   H	-2.936308	-0.32028	-0.300366
   O	-3.773153	-0.054456	0.68409
   H	-4.601104	-0.56211	0.759149
   H	-3.992419	0.882659	0.838105
   O	0.117257	-4.422599	-0.017259
   H	-0.120466	-4.770968	0.858774
   H	-0.092684	-5.132132	-0.648212
   O	-0.047963	-1.905648	-0.622612
   H	-0.062303	-2.902039	-0.384029
   H	-1.36177	-1.069669	-0.887811
   O	3.800076	-0.651952	-0.851052
   H	4.364187	-0.984243	-1.579637
   H	4.341116	-0.633895	-0.034868
   16
w5s7 opt at ZORA-SR+SO  PBE/QZ4P
   Hg	0.640659	0.188613	0.47331
   O	-0.793106	1.097007	-1.226346
   H	-1.756707	1.012256	-1.098857
   H	-0.650753	1.996444	-1.576287
   O	0.864126	-1.472702	-1.155697
   H	1.697266	-1.96949	-1.264865
   H	0.597192	-1.185315	-2.050221
   O	4.358604	1.03853	1.668101
   H	4.737275	0.7498	2.518811
   H	4.952437	1.728936	1.318954
   O	1.958251	1.522955	1.445905
   H	3.02541	1.298242	1.598399
   H	1.585258	1.925674	2.2522
   O	-1.194198	-1.137742	0.940229
   H	-1.53835	-1.218227	1.850563
   H	-1.137987	-2.04512	0.583518
   16
w5s8 opt at ZORA-SR+SO  PBE/QZ4P
   H	-0.838646	2.909125	-0.371404
   O	-0.14419	2.410653	0.100013
   H	0.684558	2.910703	-0.028491
   H	2.916055	-0.031255	-0.138175
   O	2.171323	-0.183796	-0.749079
   H	2.491843	0.070585	-1.634114
   H	-0.085799	0.789594	2.89027
   O	0.233161	0.065879	2.320295
   H	0.101888	-0.757666	2.82481
   H	-3.073971	0.055292	-0.546118
   O	-2.250386	-0.15374	-1.025339
   H	-2.422074	0.055015	-1.962293
   H	-0.860984	-2.642632	-0.465624
   O	-0.089572	-2.20307	-0.059313
   H	0.705218	-2.622312	-0.441653
   Hg	-0.098072	0.10092	-0.013784
   16
w5s10 opt at ZORA-SR+SO  PBE/QZ4P
   Hg	-0.406051	-0.42262	-0.299946
   O	3.170054	0.892246	-0.51394
   H	3.703019	1.277537	0.207753
   H	3.704926	1.022469	-1.320328
   O	-1.682025	-0.822319	1.693132
   H	-2.195948	-0.093572	2.09077
   H	-1.246879	-1.272379	2.44249
   O	0.639416	1.475663	-0.412886
   H	1.653041	1.36298	-0.537956
   H	0.305444	2.139871	-1.04549
   O	1.670844	-1.478334	0.070955
   H	1.86505	-2.387874	-0.219427
   H	2.446167	-0.918409	-0.162217
   O	-1.794482	-2.019146	-0.978441
   H	-2.170883	-1.99873	-1.880356
   H	-2.534382	-2.169387	-0.356555
