   19
w6s2  opt at ZORA-SR  PBE/QZ4P
   H	6.092145	0.662115	-0.052194
   O	5.349697	0.364240	-0.609111
   H	5.729276	0.022740	-1.438499
   H	1.116191	1.558388	1.307304
   O	1.149035	1.091340	0.451990
   H	2.502912	1.454199	-0.273496
   H	-2.652076	-3.844491	0.735416
   O	-2.556853	-3.004207	1.216921
   H	-3.129813	-3.073357	2.000295
   H	-3.129366	-0.347961	-0.348304
   O	-2.266332	-0.912025	-0.154208
   H	-2.443135	-1.758887	0.439419
   H	3.288418	2.428571	-1.349988
   O	3.399290	1.833359	-0.587812
   H	4.285665	1.155503	-0.653064
   H	-4.976524	0.737646	-0.125278
   O	-4.262401	0.504838	-0.743494
   H	-4.687156	0.348176	-1.604380
   Hg	-0.568652	0.119154	0.209841
   19
w6s5  opt at ZORA-SR  PBE/QZ4P
   Hg	-0.740879	-0.466067	-0.061057
   O	5.503919	1.568027	-0.432196
   H	5.738803	2.408387	-0.000368
   H	6.376938	0.996718	-0.686989
   O	3.683552	0.313193	0.742726
   H	3.772511	0.070854	1.678501
   H	4.742442	1.051704	0.095198
   O	7.463383	0.206146	-1.115743
   H	8.273605	0.127188	-0.583389
   H	7.740767	0.268634	-2.046437
   O	-2.277388	-1.737297	-0.557943
   H	-3.071998	-1.986882	0.152454
   H	-2.640856	-1.607843	-1.453392
   O	-3.976292	-2.352101	1.112323
   H	-4.864711	-1.952452	1.113769
   H	-4.094290	-3.306517	1.270395
   O	0.834162	0.617644	0.416289
   H	2.724560	0.446267	0.567021
   H	0.519945	1.524241	0.596477
   19
w6s6  opt at ZORA-SR  PBE/QZ4P
   H	-3.375819	0.568160	0.691877
   O	-2.739023	-0.155432	0.274548
   H	-3.186026	-0.766933	-0.452723
   H	3.785566	0.905270	1.533914
   O	3.458958	0.218966	0.923324
   H	4.286053	-0.201803	0.315150
   H	-0.266437	1.458007	-1.174528
   O	-0.271234	0.793434	-0.460203
   H	-1.860116	0.215066	-0.013301
   H	-3.993659	-2.602416	-1.139171
   O	-3.722725	-1.716706	-1.434847
   H	-4.344362	-1.458032	-2.135736
   H	-4.859481	2.114713	0.933766
   O	-4.191449	1.571865	1.384836
   H	-4.551243	1.366484	2.264523
   H	5.627434	-1.609954	-0.073220
   O	5.221349	-0.801875	-0.437255
   H	5.942182	-0.264490	-0.813106
   Hg	1.587051	0.569535	0.171350
   19
w6s8  opt at ZORA-SR  PBE/QZ4P
   Hg	0.361013	-0.251028	-0.080966
   O	-3.707288	0.549649	0.686996
   H	-4.552246	0.160189	0.094285
   H	-3.952973	0.702584	1.617521
   O	-5.545214	-0.264240	-0.725316
   H	-6.217376	-0.888564	-0.399048
   H	-6.011303	0.407847	-1.254485
   O	-1.465334	-0.673833	0.636231
   H	-2.810644	0.029808	0.630267
   H	-1.536895	-1.640519	0.734306
   O	4.173126	0.431063	0.568891
   H	4.809183	-0.283961	0.750300
   H	4.699413	1.234182	0.405014
   O	0.676169	2.158448	0.775701
   H	0.564180	2.472274	1.688597
   H	0.708453	2.961035	0.228171
   O	2.228274	0.068832	-0.925071
   H	3.093114	0.195393	-0.285943
   H	2.446700	-0.547452	-1.648800
   19
w6s11  opt at ZORA-SR  PBE/QZ4P
   Hg	0.331237	-0.077099	-0.951036
   O	0.920570	-0.242847	1.454610
   H	0.320006	-0.806177	1.984093
   H	1.801991	-0.310471	1.861095
   O	-1.473588	-1.820509	1.919886
   H	-1.437317	-2.760746	2.176714
   H	-2.183932	-1.435731	2.465521
   O	-3.182055	-1.189777	-2.211724
   H	-3.407019	-1.988887	-2.720148
   H	-4.025386	-0.756188	-1.991986
   O	1.904976	1.116065	-1.548437
   H	2.125189	1.336110	-2.614857
   H	2.023289	1.912461	-0.997305
   O	-1.239636	-1.358672	-0.655299
   H	-2.106335	-1.269799	-1.263995
   H	-1.442552	-1.531649	0.327579
   O	2.415470	1.484993	-3.915212
   H	3.312964	1.224574	-4.195069
   H	2.217851	2.335443	-4.349162
   19
w6s12  opt at ZORA-SR  PBE/QZ4P
   H	-3.663345	2.521612	-0.874363
   O	-3.061317	2.457972	-0.112632
   H	-3.517808	2.881121	0.635724
   H	2.486924	2.036429	-0.566075
   O	2.319801	1.076758	-0.510361
   H	3.180554	0.565488	-0.031302
   H	-2.045109	-0.440648	0.260267
   O	-1.637123	0.477509	0.407906
   H	-2.282643	1.280093	0.145135
   H	-0.483732	-2.283037	-0.246765
   O	0.395260	-1.854003	-0.314026
   H	0.930523	-2.396315	-0.918250
   H	4.629636	0.155340	1.295291
   O	4.215659	-0.135203	0.461481
   H	4.939338	-0.336294	-0.160569
   H	-2.747122	-2.430855	0.988374
   O	-2.436962	-2.022257	0.158408
   H	-3.070058	-2.317724	-0.521780
   Hg	0.350967	0.603316	-0.097060
   19
w6s13  opt at ZORA-SR  PBE/QZ4P
   Hg	-0.180769	-0.204338	0.117200
   O	3.096428	-1.909311	-1.408290
   H	3.606862	-2.658098	-1.050875
   H	3.645486	-1.512209	-2.107479
   O	-0.472748	-0.470907	2.590611
   H	0.113388	-1.028063	3.131932
   H	-1.338735	-0.501404	3.033623
   O	-3.304297	-1.939313	-1.561523
   H	-3.534753	-1.840604	-2.503235
   H	-4.066337	-2.369038	-1.130847
   O	0.875665	2.061744	0.822870
   H	0.932559	2.884472	0.304588
   H	0.747190	2.350686	1.744311
   O	1.880022	-0.546886	0.275294
   H	2.430441	-1.087268	-0.475645
   H	2.286171	0.328182	0.445086
   O	-2.233380	-0.119716	-0.281969
   H	-2.713350	-0.888915	-0.889292
   H	-2.542893	0.760292	-0.566910
   19
w6s15  opt at ZORA-SR  PBE/QZ4P
  Hg	0.250440	0.007818	-0.366862
  O	-3.001533	-1.138534	1.480050
  H	-3.695741	-1.769633	1.213646
  H	-3.235347	-0.875071	2.389876
  O	1.826104	1.369971	-0.876921
  H	1.668336	2.429277	-0.808670
  H	2.686452	1.153023	-0.471456
  O	-0.536738	-1.765035	0.727877
  H	-1.446415	-1.613942	1.144612
  H	0.042204	-2.183890	1.391889
  O	0.097527	-1.052333	-2.543896
  H	-0.065151	-2.008878	-2.631565
  H	0.723036	-0.823698	-3.254914
  O	-1.936718	0.867283	-0.174592
  H	-2.559968	0.282026	0.319164
  H	-2.406515	1.197253	-0.961170
  O	1.404810	3.821440	-0.848852
  H	1.642779	4.385301	-0.090856
  H	1.690396	4.301412	-1.647435
   19
w6s17  opt at ZORA-SR  PBE/QZ4P
   H	-0.668203	1.907943	2.162282
   O	-1.127350	1.297250	1.557859
   H	-1.912431	1.772562	1.230804
   H	2.761694	0.678554	1.273596
   O	1.910019	0.279673	1.526699
   H	2.112389	-0.354106	2.238301
   H	0.841255	2.535936	-1.497763
   O	0.745969	1.582578	-1.674133
   H	1.463966	1.346696	-2.288668
   H	-0.812947	-2.691906	1.301280
   O	-1.099893	-1.770097	1.169668
   H	-1.507694	-1.489497	2.009140
   H	2.131716	-1.978649	-1.235110
   O	1.353043	-1.476391	-1.535729
   H	0.899461	-2.055264	-2.175479
   H	-2.049302	0.448086	-2.089246
   O	-2.006200	0.089892	-1.184102
   H	-2.615130	-0.670033	-1.158408
   Hg	0.095832	-0.046375	-0.025561
   19
w6s19  opt at ZORA-SR  PBE/QZ4P
H	4.089435	-1.546010	0.853200
O	3.462717	-1.595237	0.111027
H	3.968820	-1.914300	-0.656622
H	2.465811	-0.584996	-0.105337
O	1.674826	0.086922	-0.334918
H	1.910539	1.068193	-0.192469
H	-2.148666	-1.746107	1.388919
O	-2.129163	-1.120740	0.640814
H	-2.806758	-1.472978	-0.165919
H	2.608662	3.065987	0.590827
O	2.033059	2.672105	-0.089408
H	2.271067	3.126725	-0.918467
H	-0.009079	2.635416	0.320930
O	-0.761851	2.013065	0.359410
H	-1.480791	2.458879	0.838829
H	-4.506633	-1.332132	-1.176391
O	-3.644572	-1.788184	-1.168601
H	-3.819571	-2.727586	-1.359477
Hg	-0.238681	-0.399406	0.212675
   19
w6s21  opt at ZORA-SR  PBE/QZ4P
   Hg	-0.076851	-0.135818	-0.022779
   O	-2.039812	0.206911	1.302244
   H	-2.687510	-0.520348	1.345407
   H	-1.995130	0.583729	2.200496
   O	1.313514	-0.116118	1.808484
   H	1.255475	-0.847025	2.450603
   H	2.275951	-0.005678	1.559223
   O	-1.252555	1.344702	-1.463501
   H	-2.002203	1.824310	-1.064415
   H	-0.748412	2.006388	-1.972791
   O	-1.429828	-1.826334	-1.005584
   H	-1.173338	-2.765943	-1.044712
   H	-1.825555	-1.618008	-1.872244
   O	3.742535	0.374892	0.689866
   H	4.481473	-0.260695	0.729957
   H	4.145500	1.239278	0.898325
   O	1.835449	0.317741	-1.301554
   H	2.665523	0.322758	-0.752985
   H	2.022143	-0.196314	-2.107741
   19
w6s22  opt at ZORA-SR  PBE/QZ4P
   Hg	0.089656	0.075418	0.080543
   O	-1.029186	1.870439	-1.093970
   H	-1.693524	1.736077	-1.794108
   H	-1.394597	2.560254	-0.509645
   O	-1.804318	-1.294526	0.702487
   H	-2.609766	-0.953132	1.131928
   H	-2.112354	-1.890060	-0.005355
   O	0.037691	1.791210	1.784449
   H	-0.278602	1.649419	2.695444
   H	0.869050	2.293759	1.866926
   O	0.180003	-1.645835	-1.616621
   H	0.822603	-2.354848	-1.429528
   H	0.249670	-1.469536	-2.572769
   O	1.182645	-1.715085	1.284800
   H	0.583853	-2.235356	1.851556
   H	2.006318	-1.609138	1.795030
   O	1.970118	1.446829	-0.578889
   H	2.859280	1.099509	-0.775150
   H	1.768251	2.079452	-1.292793
   19
w6s23  opt at ZORA-SR  PBE/QZ4P
   Hg	0.644847	-0.399851	-0.061666
   O	-0.623245	-1.901517	0.704201
   H	-0.539670	-2.757047	0.243330
   H	-1.700849	-1.621520	0.831866
   O	1.887400	0.853563	1.670654
   H	2.246247	0.379590	2.443779
   H	1.516523	1.681786	2.027713
   O	-2.919112	-1.172882	1.078844
   H	-3.349267	-0.600017	0.394449
   H	-3.576367	-1.778844	1.462250
   O	-0.812092	1.340749	-0.785741
   H	-1.788170	1.181453	-0.890819
   H	-0.536121	1.925272	-1.513178
   O	-3.538340	0.768177	-0.778365
   H	-4.055793	1.495996	-0.384885
   H	-3.999842	0.562044	-1.612497
   O	2.352074	0.535393	-1.146425
   H	3.004571	0.877028	-0.501406
   H	2.845355	0.016328	-1.812155
   19
w6s24  opt at ZORA-SR  PBE/QZ4P
   H	-2.347763	1.585454	0.154582
   O	-1.701170	2.315383	0.335583
   H	-2.159421	3.173051	0.346537
   H	0.967317	2.560591	-1.030024
   O	0.661281	2.109981	-0.219043
   H	-0.441666	2.258218	-0.046207
   H	-1.983915	-3.213080	-0.250272
   O	-1.572648	-2.332270	-0.268170
   H	-2.244672	-1.649877	-0.035074
   H	1.293578	-2.382513	0.726451
   O	0.842377	-1.958869	-0.029463
   H	-0.227669	-2.189231	-0.050167
   H	-3.839404	-0.045730	0.874530
   O	-3.263165	-0.011771	0.087041
   H	-3.886842	-0.020752	-0.664064
   H	4.104784	0.409965	0.596368
   O	3.525312	-0.219586	0.129934
   H	4.087361	-0.652664	-0.537576
   Hg	1.112147	0.097507	-0.135046
