  16
   W5I
I        1.5541790000     -0.0552860000     -0.0131110000
H       -1.8390300000     -1.3716950000      1.5777760000
O       -1.7720840000     -0.5283680000      2.0012330000
H       -0.8898240000     -0.2480300000      1.8071780000
H       -2.7902290000      0.7471020000      0.6978590000
O       -3.0532060000      1.2858210000     -0.0356650000
H       -2.3938590000      1.9611570000     -0.0946230000
H       -2.3665720000     -0.0771180000     -1.4772450000
O       -1.8716030000     -0.7264450000     -1.9576980000
H       -0.9660850000     -0.4917240000     -1.8231310000
H       -0.4247430000     -2.6177890000      0.1438580000
O       -1.3366660000     -2.8566930000      0.0894510000
H       -1.6654610000     -2.3494720000     -0.6399560000
H       -0.2970710000      3.3419430000      0.7565520000
O       -0.5610760000      3.0411080000     -0.0940460000
H        0.0184920000      2.3123850000     -0.2795700000
