15
Configuration: P14.com
 S                 -2.15155216    2.65109020   -0.33651503
 H                 -2.53898819    1.37989110   -0.19339201
 H                 -2.83885822    3.04694623    0.73589305
 S                  1.84137814    2.83582322    0.44384503
 H                  0.53151404    2.77332421    0.18494701
 H                  2.06903816    3.65371328   -0.58495304
 S                  0.19959501   -3.41630026    0.09403101
 H                  0.51821004   -3.70035628    1.35763610
 H                  1.23294510   -2.57916920   -0.03966500
 S                 -3.24382925   -1.23986209    0.13705001
 H                 -2.11188316   -1.94887615    0.08635901
 H                 -3.69864628   -1.76409713   -1.00202208
 S                  3.33830626   -0.85469107   -0.40374103
 H                  2.88802622    0.36877303   -0.10869901
 H                  4.20627532   -0.84710707    0.60917305
