15
Configuration: P2.com
 S                 -3.45154208    0.04077523   -0.09462212
 H                 -3.50398942   -0.32894868    1.18613277
 H                 -2.76183431    1.14658912    0.19369321
 S                 -0.02612239   -1.66054459   -1.52658885
 H                 -0.38451524   -2.12938911   -2.72356680
 H                 -1.25607909   -1.21936997   -1.24558425
 S                  3.43334037    0.04816414   -0.16812592
 H                  3.16804169    1.35510311   -0.21484778
 H                  2.39189329   -0.24300611   -0.95092219
 S                 -0.05409002    2.41352839   -0.32003442
 H                 -0.03229027    1.18325445    0.20033958
 H                 -0.00241347    1.94223912   -1.56770583
 S                  0.16579502   -0.77067303    2.20829422
 H                 -0.11517996   -2.00653405    1.79061444
 H                  1.41827233   -0.83994027    1.74908016
