15
Configuration: P5.com
 S                  3.95755817   -0.11275968   -0.15394765
 H                  2.94251226    0.00768806    0.70608734
 H                  4.24535659    1.18711545   -0.07176999
 S                  0.37461224   -0.49022212   -1.65394283
 H                 -0.45832442    0.03959791   -2.55227300
 H                  1.45800864   -0.00903274   -2.26448567
 S                 -2.64885292   -1.87687791    0.24856226
 H                 -1.90606488   -2.59976828   -0.59183055
 H                 -1.58281278   -1.52849496    0.97470768
 S                 -2.09722997    2.15149644   -0.41758671
 H                 -2.56979998    0.90218218   -0.44536248
 H                 -3.27124795    2.65234267   -0.02737561
 S                  0.47616856    0.17089606    1.95968865
 H                 -0.18133901    1.17227422    1.36968363
 H                  0.32761417    0.69557088    3.17823911
