15
Configuration: P6.com
 S                 -3.01179323   -0.16038001   -0.57509904
 H                 -3.44938827    0.07521301    0.66251105
 H                 -2.19162617    0.89433407   -0.54974804
 S                  0.13064901   -0.00032800    2.10160016
 H                  1.10275608    0.90702607    2.21003017
 H                 -0.04847900   -0.05013500    3.42316926
 S                  0.12090501   -2.77515121   -0.42076903
 H                 -0.95795807   -1.98586315   -0.43981203
 H                 -0.23263402   -3.38788626   -1.55277212
 S                 -0.19379901    2.77852021   -0.45783304
 H                  0.13737201    3.40832326   -1.58699412
 H                  0.85706807    1.95675715   -0.53930304
 S                  2.90092322    0.11720401   -0.73168805
 H                  2.07064216   -0.92861507   -0.65463605
 H                  3.56209327   -0.24700602    0.36818303
