15
Configuration: P8.com
 S                 -1.33649710    1.68629513    1.60479112
 H                 -2.09986116    1.56877612    0.51547504
 H                 -0.27686802    2.08731016    0.89603607
 S                 -3.09008424   -0.12058901   -1.63977213
 H                 -4.35603534   -0.52706204   -1.53243912
 H                 -2.63253820   -1.17328709   -0.95743807
 S                 -0.70125305   -2.21517017    0.91230807
 H                 -0.97647308   -2.96805623    1.97874815
 H                 -0.89173707   -1.06843208    1.57297712
 S                  2.04863516    2.37199418   -0.59116205
 H                  2.50798319    1.11750608   -0.55608704
 H                  3.05206823    2.82506922    0.16204201
 S                  3.12279824   -1.57279512   -0.32887702
 H                  1.93578915   -2.02204416    0.08762201
 H                  3.04007823   -2.23554917   -1.48355211
