15
Configuration: P9.com
 S                  1.11624623    1.80070704   -0.99379311
 H                  2.33197027    1.36652687   -0.65061789
 H                  1.60307062    2.67619328   -1.87462603
 S                  0.26951454   -1.73946677    0.34168317
 H                 -0.07516358   -2.18624744    1.55124608
 H                 -0.36597208   -0.57842882    0.52805998
 S                  4.20069528   -0.61573144    0.22129338
 H                  2.98737838   -1.17174914    0.28905790
 H                  4.54542615   -1.35732946   -0.83260229
 S                 -1.84868649    1.62011949    1.07323423
 H                 -2.73712173    1.45741468    2.05564108
 H                 -1.15975070    2.53536788    1.75636117
 S                 -3.80661985   -1.14423821   -0.69897229
 H                 -3.49450164    0.06055371   -1.18013577
 H                 -2.53373106   -1.54454313   -0.73751038
