12
Configuration: T10.com
 S                  2.28369417    2.19336217   -0.10253101
 S                  2.85544522   -1.82894414   -0.46263104
 S                 -0.69537805   -0.34179003    0.98605607
 S                 -4.54563535    0.05136300   -0.48225604
 H                  2.23660517    2.58825320   -1.37571011
 H                  2.88629222    1.04280108   -0.41306503
 H                  1.67751013   -1.74456113    0.16151301
 H                  3.42817026   -2.44439419    0.57302204
 H                  0.05628800    0.73955006    0.75798106
 H                 -0.78817206   -0.08394601    2.29172017
 H                 -4.57578135   -1.19143509   -0.96545007
 H                 -3.29092025   -0.09013601   -0.04822300
