12
Configuration: T7.com
 S                 -1.66574113    1.34756611    1.04255408
 H                 -2.07347116    2.17352016    2.00888715
 H                  2.63396920    0.46456004   -1.30415510
 S                  1.66638713    1.34494810   -1.04466408
 H                  2.07630016    2.17025817   -2.01062416
 H                 -0.37987803   -0.49946004   -1.42154911
 S                 -1.32465210   -1.44359711   -1.44184311
 H                 -2.22765217   -0.59530804   -1.93760415
 H                  0.37905303   -0.49778704    1.42347211
 S                  1.32374510   -1.44201911    1.44392311
 H                  2.22771117   -0.59278305    1.93630315
 H                 -2.63185520    0.46665404    1.30572410
