12
Configuration: T9.com
 S                  0.00079600    2.11227016    0.94574807
 H                  0.00088200    2.09169816   -0.38859203
 H                 -0.00422500    0.77697506    1.00962208
 S                  0.00135100   -1.95971315    0.83171606
 H                  0.96786307   -2.51122619    1.56835512
 H                 -0.96206007   -2.51216219    1.57170812
 S                 -2.57332320   -0.04235000   -0.90184807
 H                 -3.15755424    0.90417407   -0.16577501
 H                 -3.72241828   -0.37386703   -1.49383512
 S                  2.57130619   -0.04204900   -0.90264307
 H                  3.15809924    0.90207907   -0.16554601
 H                  3.71733328   -0.36821103   -1.50349411
