  19
      file 'w6s10-Final.log' was gotten at: ---' #p mp2=full gen pseudo=Read freq'---
Hg      -0.1044900000      0.2704300000     -0.1252100000
O        2.9429800000      2.4546700000      0.3059400000
H        3.2669800000      2.8918000000      1.1017200000
H        3.5272900000      2.7343600000     -0.4073700000
O        3.0298500000     -1.8571700000      0.1157600000
H        3.6111000000     -2.0316700000     -0.6330400000
H        3.4274700000     -2.3088600000      0.8689600000
O       -1.9742600000      0.3908000000     -0.8185100000
H       -2.8280600000      0.3999900000     -0.1646800000
H       -2.1294300000      0.9562900000     -1.5879500000
O       -0.8773800000     -1.7218600000      1.1824700000
H       -0.9186300000     -1.8046500000      2.1421100000
H       -1.0135700000     -2.6164500000      0.8498300000
O       -3.8888600000      0.3463400000      0.6894700000
H       -4.5490100000     -0.3459300000      0.5608500000
H       -4.3716900000      1.1450100000      0.9353800000
O        1.7652700000      0.2620100000      0.4995300000
H        2.3031200000      1.1351800000      0.3885300000
H        2.3245800000     -0.5866900000      0.3176100000
