   22

 Br       0.916415   -1.571044    0.052289
 O       -2.471774   -1.540979    0.190688
 H       -2.681325   -1.070156   -0.627979
 H       -1.525529   -1.748081    0.127748
 O        1.535215    2.620981    0.304557
 H        1.301881    2.117320    1.106821
 H        2.188058    2.073697   -0.157030
 O       -0.417850    1.254384   -1.087573
 H       -0.063255    0.381897   -0.831117
 H        0.201177    1.889581   -0.672893
 O       -3.148972    0.689459   -1.591097
 H       -2.225485    0.980647   -1.649839
 H       -3.419421    1.016687   -0.726661
 O        0.571379    0.925800    2.328194
 H        0.776288    0.102618    1.855823
 H       -0.389278    1.005112    2.227007
 O        2.717630    0.747805   -1.538970
 H        1.957483    0.933173   -2.098657
 H        2.434000   -0.047724   -1.056348
 O       -2.130716    1.050130    1.271900
 H       -2.298946    0.100455    1.138585
 H       -1.569479    1.270650    0.512836

