   10

 Br                -1.32009000   -0.00003000    0.00045600
 O                  1.61577500   -0.13794100    1.68575100
 H                  0.66058600   -0.22332900    1.52737400
 H                  1.83412600    0.61243300    1.11492400
 O                  1.61260700   -1.39203700   -0.96323000
 H                  1.83323800   -1.27122000   -0.02870100
 H                  0.65768700   -1.21089200   -0.95598100
 O                  1.61257100    1.52997700   -0.72444100
 H                  1.83183700    0.66078300   -1.08916100
 H                  0.65805000    1.43329900   -0.56903900

