  16
      file 'w5s2.log' was gotten at: ---' #p ZORA-SR+SO PBE QZ4P'---
Hg       1.0297340000      0.4773970000      0.4104120000
H       -5.6041210000     -0.8398950000      0.4723470000
O       -4.8986630000     -0.7385760000     -0.1922090000
H       -5.3109660000     -0.8116960000     -1.0727490000
H        3.3790120000      1.4676350000     -0.0520320000
O        2.9014090000      0.6743110000     -0.3574410000
H        3.6063670000     -0.1879030000     -0.5569680000
H       -4.0153080000      0.1989370000     -0.0372360000
O       -3.1902520000      0.9837650000      0.0173880000
H       -3.4870930000      1.8306880000      0.3973940000
H        4.6699840000     -1.2811370000     -1.7700780000
O        4.3485200000     -1.2227780000     -0.8509540000
H        5.1001600000     -1.4341710000     -0.2669500000
H       -2.3065350000      0.7062040000      0.4297530000
O       -0.8408490000      0.3135040000      1.0241570000
H       -0.8388400000     -0.0221870000      1.9402390000
