  16
      file 'w5s5.log' was gotten at: ---' #p ZORA-SR+SO PBE QZ4P'---
Hg      -0.7932790000     -2.6985490000      0.7784960000
O        0.6336470000     -3.9479960000      2.4205620000
H        1.1676280000     -4.7335180000      2.2097050000
H        1.0454620000     -3.5549270000      3.2098920000
O       -2.2882790000     -2.6904390000      2.1784770000
H       -2.7253790000     -3.6404740000      2.6388110000
H       -2.9919470000     -2.0418800000      1.9884150000
O       -3.1539230000     -4.7174400000      3.2150360000
H       -4.0137760000     -5.0794910000      2.9299030000
H       -3.1523320000     -4.7113170000      4.1906700000
O        0.5740140000     -2.6185240000     -0.7471580000
H        0.1579060000     -2.6283460000     -1.6298790000
H        1.4822170000     -1.9314660000     -0.7466550000
O        2.5728560000     -1.2257670000     -0.6984350000
H        3.3949770000     -1.6812040000     -0.9605540000
H        2.5788210000     -0.3491320000     -1.1264230000
