  19
      file 'w6s17.log' was gotten at: ---'ZORA-SR+SO PBE QZ4P'---
H       -1.0205520000      2.1034190000      1.9857300000
O       -1.1379870000      1.8482770000      1.0529130000
H       -2.0935560000      1.9174580000      0.8726010000
H        2.5840610000      0.6703330000      1.5096800000
O        2.0008550000     -0.0910310000      1.3383640000
H        1.9122330000     -0.5606960000      2.1875240000
H        0.4576800000      2.6853110000     -1.2063730000
O        0.5665950000      1.7752700000     -1.5390740000
H        1.3718780000      1.7847110000     -2.0870740000
H       -0.4628450000     -2.6846090000      1.2041040000
O       -0.5674450000     -1.7758440000      1.5408280000
H       -1.3704260000     -1.7851410000      2.0927120000
H        2.0885770000     -1.9164340000     -0.8784100000
O        1.1327540000     -1.8432140000     -1.0554990000
H        1.0110020000     -2.0975200000     -1.9881330000
H       -1.9135600000      0.5558960000     -2.1876920000
O       -2.0032520000      0.0917860000     -1.3350320000
H       -2.5851370000     -0.6719210000     -1.5024630000
Hg      -0.0018720000      0.0009490000      0.0029890000
