  19
      file 'w6s7.log' was gotten at: ---'ZORA-SR+SO PBE QZ4P'---
Hg       0.0488990000      1.0924390000      0.7170130000
O       -0.6535660000     -0.8803380000     -2.2647310000
H       -1.4899400000     -0.9309070000     -2.7572150000
H       -0.0036440000     -1.3631650000     -2.8023250000
O       -0.7996550000      4.9275960000      1.0819770000
H       -0.6973820000      5.5793120000      0.3647650000
H       -0.9270840000      5.4296820000      1.9078060000
O        0.6636690000      2.9696700000      1.2343370000
H        1.5987380000      3.1626940000      1.0389580000
H        0.0341910000      3.8763880000      1.1331680000
O       -1.0411320000     -2.5863150000      1.9767320000
H       -1.9967420000     -2.7698950000      2.0133030000
H       -0.4527260000     -3.5006370000      1.9430570000
O        0.3776900000     -4.6067670000      1.9668090000
H        0.1220610000     -5.4270680000      1.5097830000
H        0.7565580000     -4.8679630000      2.8247920000
O       -0.5491780000     -0.7388400000      0.3420480000
H       -0.6063450000     -0.8634340000     -0.6651220000
H       -0.8241220000     -1.8436310000      1.2635860000
