10
    file 'w3s2.log' at: ---' #p MP2(full) gen pseudo=Read opt=(MaxCycle=150) freq geom=(nocrowd, ne'---
Hg      0.0906070664    -0.1593004296     0.0028947029
O      -1.8064320621     -0.959823352     0.0783236686
H      -2.0107607837    -1.9048801539    -0.0244121388
H      -2.5682244851    -0.4358993707    -0.2206685738
O       2.1211150192     0.1165310457    -0.0813481207
H       2.7488020617    -0.6267086364    -0.0723630725
H       2.5549982071     0.8918623584      0.313658471
O      -0.9710607193      1.914138173    -0.0141111776
H      -0.9906190437     2.5370183945    -0.7552992187
H      -1.2309482606      2.428099971     0.7644014597
