13
    file 'w4s1.log' at: ---' #p MP2(full) gen pseudo=Read opt=(MaxCycle=150) freq geom=(nocrowd, ne'---
H        1.465191222    -0.1686880478    -2.4701333318
O       1.5517215415    -0.1605370221    -1.5058544324
H        2.382882339     -0.609381632    -1.2943790194
H      -2.6998881727    -0.9517935121     0.5095647241
O      -2.2295229791    -0.3657306141    -0.1020915861
H      -2.7554882187      -0.31706344     -0.914515109
H       1.2697899505    -1.8509410768     1.8284478325
O       1.2517336128    -0.9337106569     1.5206163015
H       1.6068501501    -0.3969215118     2.2432613327
H      -0.3932700779     2.6685937597     0.9810525873
O       0.2441515061     2.0884093267     0.5424153604
H       0.9000058774     2.6695232066      0.133524696
Hg     -0.1040092815    -0.0758847002    -0.0582188607
