13
    file 'w4s2.log' at: ---' #p MP2(full) gen pseudo=Read opt=(MaxCycle=150) freq geom=(nocrowd, ne'---
H       3.7388468585     0.0880123274     -0.794644483
O       3.2118362512    -0.1115402882    -0.0027263604
H       3.7401289239     0.0928588921     0.7870976479
H      -1.2728551323     0.9305963858     0.0000658188
O      -0.7359863644    -0.0104392993    -0.0002485523
H      -1.2862056725    -0.9453088006     0.0016485174
H      -2.3356254826     2.4593724212     0.7764121481
O      -1.8582603731     2.1403122662     0.0001770751
H      -2.3369995851     2.4586826341    -0.7754969431
H      -2.3614256172    -2.4622141916     0.7801832143
O      -1.8826352279    -2.1468807523     0.0032984415
H      -2.3626828935       -2.4635779    -0.7722567223
Hg       1.193418315    -0.0298336946    -0.0013698021
