13
    file 'w4s3.log' at: ---' #p MP2(full) gen pseudo=Read opt=(MaxCycle=150) freq geom=(nocrowd, ne'---
H       4.5530635482     1.2806604803    -0.4224039442
O       4.1188357755     0.6847575311     0.2040516921
H       4.8007354561     0.2121078767     0.7009021334
H      -0.2964089802    -0.8299204974     1.4974128071
O      -0.3122393252    -0.4750603491     0.5938031403
H       1.3766789778    -0.4627972873    -0.1789906729
H      -4.4743246088     1.2545341589    -0.0355596671
O      -4.0222501196     0.4814445648    -0.4102173368
H      -4.6893654065    -0.1939605369      -0.61333196
H       3.2006839656     0.0590146171    -0.2146650203
O       2.2259975382    -0.4876073176    -0.6645776844
H        2.359010582    -1.3687097229    -1.0355865357
Hg     -2.1393464031    -0.0316045176     0.1729230484
