16
    file 'w5s2.log' at: ---' #p MP2(full) gen pseudo=Read opt=(MaxCycle=150) freq geom=(nocrowd, ne'---
H      -5.5243675468    -0.8952627716     0.4758223108
O      -4.8550672246    -0.7141475043     -0.194800882
H      -5.2752452813    -0.8197668079    -1.0571316052
H       3.3417280528     1.5008327155     -0.109319388
O       2.8641614942      0.688750632     -0.327559361
H       3.5440696015    -0.1397110006    -0.5269936766
H      -3.9515232474     0.2368366521    -0.0342799087
O       -3.160916379     0.9953738664     0.0269546483
H      -3.4583718037     1.8260715727     0.4208112401
H       4.6137429398    -1.3046136214    -1.7295409909
O       4.2935909632    -1.1987447039    -0.8248443379
H       5.0038195651    -1.4849676981      -0.23724995
H       -2.285300252     0.7114637805     0.4169568448
O      -0.8107817125     0.3051358241     0.9792883354
H      -0.8204999199    -0.0774623752     1.8691391472
Hg      1.0235217507     0.4843084397      0.387819574
