16
    file 'w5s3.log' at: ---' #p MP2(full) gen pseudo=Read opt=(MaxCycle=150) freq geom=(nocrowd, ne'---
Hg      0.3585733446    -2.3836964752     1.2483620078
O       1.7786629353    -3.4175396113     0.3792459807
H       2.0437450515    -3.6169298814    -0.8292137573
H       2.3843211255    -3.8522552005     0.9955267919
O      -1.0848807001    -1.3334657315     2.0352578773
H      -0.8616344855    -0.4037466067     2.4521621091
H      -1.8963411279    -1.8320978886      2.460757582
O      -3.0113390017    -2.5991145961     2.9300521669
H      -3.1593867609    -2.8113491889     3.8586348704
H      -3.8841804285    -2.4860322289     2.5359393766
O      -0.4777792768     0.8987038495      2.908813463
H        -0.85934521     1.6896957082     2.5104401471
H      -0.3171644661     1.1129532064     3.8348408955
O       2.2334373279    -3.7615861458    -1.9490511432
H       2.1362950045    -4.6661373519    -2.2825147372
H       3.0605046681    -3.3900778573    -2.2907946305
