16
    file 'w5s9.log' at: ---' #p MP2(full) gen pseudo=Read opt=(MaxCycle=150) freq geom=(nocrowd, ne'---
Hg      0.4546529977    -0.2302550597     0.0519296866
O       -2.926592403    -2.0399947128    -0.1200152984
H      -3.4407209726    -2.3999261683     0.6128559861
H      -3.4251794588    -2.2245487742    -0.9245905002
O       -1.507546903    -0.0826907523     0.2545149635
H       -1.884182871     0.8417665165     0.0947973609
H      -2.1588233619    -0.8958760831     0.0574953677
O       2.4689345992    -0.6314559226    -0.0654972293
H       2.8544137843    -1.3893760509     0.4036895096
H       2.9413430208    -0.5337669938    -0.9080284996
O       0.7605054764     2.1350956188    -0.0507050679
H      -0.0232623625     2.7011064004    -0.0888617514
H       1.5130762666     2.7165566167      0.113088856
O       -2.185905565     2.3761671315     -0.062802395
H      -2.6317987706     2.8014549005     0.6821054757
H      -2.6562964768     2.6941543333    -0.8447634643
