19
    file 'w6s19.log' at: ---' #p MP2(full) gen pseudo=Read opt=(MaxCycle=150) freq geom=(nocrowd, ne'---
Hg      0.2197808924     0.0433229583    -0.0719314608
O       1.7287756973    -0.6487546183     -1.630435083
H       1.6716397511    -0.5443831645    -2.5889530469
H       2.3054303963    -1.4073614694    -1.4728588983
O      -1.4081544795     1.5231527946     0.0607290614
H      -1.3835667365     2.4076639063    -0.3239509706
H      -2.3370199224     1.1933009648      0.034271078
O      -3.7055159429     0.1173969187      0.085283244
H      -4.3644396584     0.1795214154    -0.6186821156
H      -4.2244883553       0.11343449     0.9005168462
O       1.2846607936    -1.2826224752     1.4701508232
H       0.8510276745     -1.990734587     1.9632272312
H       1.9910053619    -0.9512436761     2.0391373282
O      -1.4697199503    -1.5084596146    -0.1148616082
H      -2.3884044192    -1.1751972364    -0.0863472458
H      -1.4820555426    -2.3562087644    -0.5749374405
O       1.8365517476     1.6341012861     0.5093523091
H        2.605862698     1.8393982659    -0.0363178614
H       1.7527799943     2.3628516058     1.1370708099
