19
    file 'w6s15.log' at: ---' #p MP2(full) gen pseudo=Read opt=(MaxCycle=150) freq geom=(nocrowd, ne'---
H           -1.09653           2.5957         -1.06939
O            -1.0885          1.64706         -1.24461
H           -1.61937          1.51473         -2.03918
H            1.61965          2.12366          1.39376
O            0.79189          1.63361          1.46674
H            0.35885          1.95276          2.26756
H             2.0218          0.86783          -2.0567
O            1.90484          0.25751         -1.31879
H            2.73706         -0.22247         -1.23102
H           -2.01909         -0.87011          2.05946
O           -1.90643         -0.25981          1.32088
H           -2.73949          0.21943          1.23712
H            1.61727         -1.51829          2.03723
O            1.08715         -1.64644          1.24147
H            1.09158         -2.59469          1.06403
H           -0.35378         -1.94761         -2.26662
O           -0.78889           -1.632         -1.46552
H           -1.61665         -2.12267         -1.39678
Hg          -0.00152          0.00221          0.00115
