19
    file 'w6s2.log' at: ---' #p MP2(full) gen pseudo=Read opt=(MaxCycle=150) freq geom=(nocrowd, ne'---
H       6.0313462127     0.6465614622    -0.0461029525
O       5.2882273476     0.3863836314    -0.6037589488
H       5.6563445194    -0.0287014272    -1.3921971266
H       1.1126993341     1.4831853296     1.3026005038
O       1.1130318591     1.0431601259     0.4399887999
H       2.4641961253     1.4446600773    -0.2950533607
H      -2.6064488917    -3.8403836059      0.741738892
O      -2.5309004907    -2.9955554486     1.1990257142
H      -3.0249238067    -3.0926079659     2.0202101153
H      -3.0821804725    -0.3485494808    -0.3357246532
O      -2.2359238731    -0.8880546723    -0.1179393981
H      -2.4166748691     -1.733365002     0.4366538554
H       3.2370348858     2.4227839415    -1.3526036526
O        3.341656461     1.8326004241    -0.5962109614
H       4.2045956468      1.182177516    -0.6523733563
H      -4.9017363139     0.8305378945     -0.168141312
O      -4.2108812939      0.509544693    -0.7576341428
H      -4.6309549656     0.3828843436    -1.6155734126
Hg     -0.5681874148     0.1020781634     0.2144553971
