19
    file 'w6s22.log' at: ---' #p MP2(full) gen pseudo=Read opt=(MaxCycle=150) freq geom=(nocrowd, ne'---
Hg           0.70393         -0.54642         -0.15373
O           -0.58175         -1.97096          0.52324
H           -0.56651          -2.8352          0.08969
H           -1.59085         -1.65592          0.74513
O            1.57098          0.85796          1.61486
H            1.97075          0.52961          2.43109
H            1.14083          1.68642          1.86241
O           -2.77211         -1.12001          1.10365
H           -3.25992         -0.54595          0.48392
H           -3.40092         -1.62359          1.63287
O           -0.72635          1.19065         -0.82696
H           -1.70503          1.14135         -0.85663
H           -0.46928          1.88324         -1.44672
O           -3.49176          0.84224         -0.70672
H           -3.97888          1.57676         -0.31062
H           -3.97952          0.64376         -1.51654
O            2.35295          0.42869         -1.07113
H            2.95489          0.86443         -0.44839
H             2.8867          0.03864         -1.77947
