19
    file 'w6s4.log' at: ---' #p MP2(full) gen pseudo=Read opt=(MaxCycle=150) freq geom=(nocrowd, ne'---
H      -3.3023435969     0.5421642226     0.6793111497
O      -2.6759269358     -0.161201942     0.2725934929
H      -3.1225623894    -0.7598945795    -0.4310463934
H       3.7172633711     0.8664907013      1.592106232
O       3.3852729124     0.2562577924     0.9197032603
H       4.1865640161    -0.1613992121     0.3400528674
H      -0.2485350704      1.434203485    -1.1751116277
O      -0.2470981639     0.7886053605    -0.4529159511
H      -1.8122875457     0.2105907424     -0.023116312
H      -3.9644296746    -2.6026469864    -1.1439848651
O      -3.7089265908    -1.7110044655    -1.4024743114
H      -4.2684345445    -1.4758439648    -2.1493854128
H       -4.767491277     2.1449086066     0.9389009376
O      -4.1560404147     1.5380366261     1.3679651613
H      -4.5106476075     1.3755612888       2.24832386
H       5.5252770624    -1.6015021823    -0.1162590682
O       5.1292337604    -0.7777577728    -0.4257593704
H       5.8272625726    -0.2803325477    -0.8683837283
Hg      1.5608701161     0.5786248275     0.1886800792
