19
    file 'w6s8.log' at: ---' #p MP2(full) gen pseudo=Read opt=(MaxCycle=150) freq geom=(nocrowd, ne'---
Hg      0.3539079013    -0.4230087791    -0.1316474951
O      -3.6139273335     0.5543861508     0.6335033149
H      -4.4516365127      0.155402242     0.1056115005
H       -3.838288754     0.7911581988     1.5428871919
O      -5.4906179511    -0.3204451723    -0.6641498925
H      -6.1507376087    -0.9388353772    -0.3311644663
H      -5.9419167964     0.2660438476    -1.2822902038
O       -1.434644579    -0.7598369396     0.5761331788
H      -2.7565900936     0.0055072076     0.5999540745
H      -1.5359274912    -1.7049243054     0.7563584851
O       4.0687918736     0.3855338261     0.5469140623
H        4.701175926    -0.2769379298     0.8489025705
H       4.5771036601     1.1888502913     0.3851250719
O       0.7456706302      1.948546423     0.7361043584
H       0.7887950485     2.2323141307     1.6557336338
H       0.7544538391     2.7656497589     0.2255233358
O       2.1709171526    -0.1344823293    -0.9421865964
H       2.9953236219     0.0627509834    -0.3207954456
H       2.4376774669    -0.7312722274    -1.6551066787
