   16

Be        0.657945    0.000114    0.000108
O         1.653521    1.129810   -0.638958
H         2.462805    0.968940   -1.144892
H         1.413266    2.062479   -0.736797
O        -2.700821   -0.000012   -0.000079
H        -3.288073   -0.634277    0.434448
H        -3.287652    0.634736   -0.434466
O        -0.355415    0.729063    1.027981
H        -0.163528    1.121452    1.889324
H        -1.329158    0.622538    0.898778
O         1.654087   -1.129208    0.639057
H         2.462512   -0.967943    1.146240
H         1.414481   -2.062121    0.736128
O        -0.354626   -0.729742   -1.028034
H        -0.161984   -1.121549   -1.889482
H        -1.328420   -0.623998   -0.899444

