   10

Be       -1.095509    0.200439   -0.000078
O         0.253397    0.684342    0.000009
H         0.418818    1.639180    0.000071
H         1.645889    0.038106    0.000011
O        -2.529025   -0.335479    0.000007
H        -3.069531   -0.515495   -0.794312
H        -3.069451   -0.515346    0.794415
O         2.558598   -0.445340   -0.000007
H         3.096239   -0.338288    0.806237
H         3.096307   -0.338092   -0.806178


