   10

 Be        0.000001   -0.000011    0.000211
 O         1.053311    1.151014   -0.000135
 H         0.943013    2.028210    0.409950
 H         1.936855    1.117565   -0.410009
 O         0.470181   -1.487586    0.000117
 H         0.001035   -2.235865   -0.411949
 H         1.284761   -1.830084    0.411107
 O        -1.523594    0.336580    0.000025
 H        -1.936979    1.118205   -0.409788
 H        -2.227872   -0.198055    0.409791

