  19
      file 'w6s11.log' was gotten at: ---'ZORA-SR+SO PBE QZ4P'---
Hg       0.3510860000     -0.1028460000     -0.9466820000
O        0.9595380000     -0.2699700000      1.4564990000
H        0.4023550000     -0.8702160000      1.9912430000
H        1.8410270000     -0.2593280000      1.8677840000
O       -1.3573650000     -1.9704970000      1.9095280000
H       -1.2845800000     -2.9176720000      2.1297900000
H       -2.0724520000     -1.6311390000      2.4784000000
O       -3.1609250000     -1.2544550000     -2.1528710000
H       -3.3794880000     -2.0478140000     -2.6731170000
H       -4.0079700000     -0.8446120000     -1.9051700000
O        1.8909150000      1.1238710000     -1.5346450000
H        2.1887380000      1.2571530000     -2.6003460000
H        1.9258250000      1.9708530000     -1.0525870000
O       -1.1808310000     -1.4169770000     -0.6455300000
H       -2.0620470000     -1.3316520000     -1.2341220000
H       -1.3576870000     -1.6248060000      0.3371020000
O        2.5759920000      1.3041570000     -3.8763960000
H        3.5046730000      1.0706940000     -4.0608610000
H        2.3728090000      2.0999710000     -4.4010430000
