  19
      file 'w6s12.log' was gotten at: ---'ZORA-SR+SO PBE QZ4P'---
H       -3.6737890000      2.5267720000     -0.8048380000
O       -3.0599640000      2.4542350000     -0.0532290000
H       -3.5024850000      2.8704570000      0.7078190000
H        2.4698970000      2.0334990000     -0.6043140000
O        2.3028490000      1.0759130000     -0.5288260000
H        3.1715940000      0.5679060000     -0.0544860000
H       -2.0371360000     -0.4499440000      0.2637610000
O       -1.6296710000      0.4691520000      0.4141700000
H       -2.2810100000      1.2774830000      0.1757540000
H       -0.4715860000     -2.2870040000     -0.2558460000
O        0.4026570000     -1.8490370000     -0.3260180000
H        0.9460330000     -2.3940280000     -0.9201220000
H        4.6328160000      0.1733590000      1.2550820000
O        4.2069000000     -0.1276970000      0.4308620000
H        4.9217540000     -0.3403100000     -0.1977170000
H       -2.7448150000     -2.4369700000      0.9789270000
O       -2.4315590000     -2.0235730000      0.1529860000
H       -3.0635520000     -2.3118170000     -0.5310400000
Hg       0.3445100000      0.6109040000     -0.1035250000
