7
    file 'w2s1.log' at: ---' #p PBE1 gen pseudo=Read opt freq'---
Hg     -0.0000712699    -0.0126021127    -0.0007687975
O       2.0344272121    -0.0656781281     0.0560496872
H       2.5558605085     0.6204900664     0.5096524437
H       2.5585037487    -0.4606950215    -0.6637365249
O      -2.0345161801    -0.0605631251    -0.0622454786
H      -2.5562113387     0.6638354287    -0.4515253641
H      -2.5586936806    -0.5202201076     0.6179930342
