10
    file 'w3s2.log' at: ---' #p PBE1 gen pseudo=Read opt freq'---
Hg      0.0888534459    -0.0000111068     0.0014189702
O      -1.8038629178    -0.9682038074     0.0764299238
H      -1.9272287086    -1.9238036621      -0.02867274
H      -2.6000494847    -0.5090093343     -0.229930029
O       2.1885722245     0.0635573927    -0.0787344719
H       2.7294974518    -0.7398884771    -0.0255275054
H       2.6984580146     0.8105866001     0.2708886175
O       -1.078899093     1.9786072966    -0.0220903305
H       -1.042648881     2.6167277336    -0.7478831184
H      -1.3152150518     2.4724753647     0.7751766838
