10
    file 'w3s3.log' at: ---' #p PBE1 gen pseudo=Read opt freq'---
Hg      0.3734546355    -0.0482247903    -0.0000156246
O       2.3075230685     0.6441944244    -0.0001613494
H       2.8663667834     0.5966092804    -0.7918138246
H       2.8662682438     0.5972854452     0.7916017707
O      -1.5141797127    -0.6051731046    -0.0000195231
H      -2.7650061193     0.0640856285    -0.0003392684
H      -1.5887085327    -1.5687060971     0.0003320991
O      -3.6800158413     0.6007351141    -0.0002668362
H      -4.2223798178     0.4955767916     -0.799026585
H      -4.2221357076      0.495653308     0.7986711416
