13
    file 'w4s1.log' at: ---' #p PBE1 gen pseudo=Read opt freq'---
H       1.4042372347    -0.2730177935    -2.5443023074
O       1.5907933629    -0.2233908337    -1.5980851003
H       2.4272965537    -0.6791179711    -1.4393822254
H      -2.6187160515    -0.8702088978     0.5422754244
O       -2.143317929    -0.3017948937    -0.0779039372
H       -2.645603494    -0.2857334052    -0.9032931241
H       1.2098552204    -1.9691979012     1.8290990273
O       1.2831320026    -1.0340388896     1.6004496895
H       1.6255474075    -0.5742445718     2.3777027017
H      -0.6108124361     2.7295276697     0.8798836311
O       0.1411500707     2.2193213728     0.5547820063
H       0.7759265131      2.844366254      0.183370658
Hg      0.0506590144     0.0134039403     0.0090940511
