16
    file 'w5s2.log' at: ---' #p PBE1 gen pseudo=Read opt freq'---
H      -5.5626183369    -0.8801351167     0.4734807666
O      -4.8941736104    -0.7062854493    -0.1981848625
H      -5.3045375479    -0.8068684662    -1.0644448688
H       3.3604890836     1.4851581416    -0.1285841491
O       2.8930967548     0.6619821553    -0.3101320395
H       3.5766260622    -0.1587288891     -0.527016207
H      -3.9820479117     0.2218926209    -0.0301877951
O      -3.1800120787     0.9790139728     0.0434584366
H      -3.4707126679     1.8244637796     0.4050244354
H       4.6624033557    -1.2942906602    -1.7487505425
O       4.3548658841    -1.1963003477    -0.8403933382
H       5.0697671196    -1.4712461768    -0.2554611088
H      -2.2940669981     0.7020025802     0.4256264287
O      -0.8401213882      0.319726089     0.9981920895
H      -0.8650327326    -0.0441665149     1.8905125505
Hg      1.0186360127     0.4778792815     0.4019322045
