16
    file 'w5s5.log' at: ---' #p PBE1 gen pseudo=Read opt freq'---
Hg      -0.827892039    -2.6997768766     0.7681928572
O       0.7844944179    -3.7484772944     2.2990230321
H       1.2645702307    -4.5707994693     2.1578103955
H        1.062095795     -3.419304437     3.1599588446
O      -2.3343687701    -2.7137724024     2.1333603943
H      -2.7536081189     -3.614909284     2.5877461982
H      -3.0122601966    -2.0355720348     2.0282146215
O      -3.2110416232     -4.717428421     3.1829197665
H      -4.0032845257    -5.1597037657     2.8568968099
H      -3.2364553138    -4.7459569212     4.1464402677
O       0.5059675674    -2.5734381385    -0.7609438215
H       0.1354632469    -2.5694491608    -1.6515947486
H       1.4400191383    -2.0072656403     -0.726255168
O       2.6071860456     -1.366434002    -0.6472779092
H       3.4138174242    -1.8461384303    -0.8687707713
H       2.6992217212    -0.4685847216     -0.986308769
