16
    file 'w5s7.log' at: ---' #p PBE1 gen pseudo=Read opt freq'---
Hg      0.6418140057      0.176909139     0.4090888569
O      -0.7882223203     1.1368587899    -1.1806362811
H      -1.7433189418     1.0176617686    -1.1193674009
H      -0.6431385177      1.998004793    -1.5902764932
O       0.9318490546    -1.4260128922     -1.190967909
H        1.708796034    -1.9944887809    -1.2584381957
H       0.6485208079    -1.2231321105    -2.0911670674
O       4.3523099187     1.0730199571     1.6660888638
H       4.7744095914     0.7015426748     2.4483842469
H        4.935315053     1.7634642636     1.3311363606
O       1.9282073893     1.4245438027     1.4962475008
H       2.9706727918     1.2688265595     1.6101605152
H       1.5697907183     1.8922246994      2.258387936
O      -1.1523617497    -1.1275585556     0.9883463421
H      -1.5810809037     -1.123393973     1.8527608202
H      -1.2081834951    -2.0286102519     0.6479695326
