16
    file 'w5s8.log' at: ---' #p PBE1 gen pseudo=Read opt freq'---
H      -0.7964828864     2.7744863927    -0.3733605518
O      -0.0154235262     2.2709076628    -0.1156833581
H        0.759009297     2.7852239536    -0.3721410983
H       3.0109320993     0.0203644673     -0.251994321
O       2.2190959763     0.0162524262    -0.8014594412
H       2.5122212751     0.0218521546    -1.7195237773
H      -0.0058123735     0.7690306968     2.8683120233
O      -0.0002539002    -0.0066911132      2.297228796
H       0.0057568847    -0.7857300849     2.8637737065
H      -3.0110970306    -0.0193867219    -0.2517480838
O      -2.2193236635    -0.0124324355    -0.8012748409
H      -2.5125436788    -0.0127788518    -1.7193255673
H      -0.7585923883    -2.7836395385    -0.3870080044
O       0.0157578345    -2.2704936772    -0.1279637406
H       0.7968907123    -2.7723124851    -0.3888317189
Hg     -0.0001129688    -0.0000646956    -0.0162703402
