19
    file 'w6s11.log' at: ---' #p PBE1 gen pseudo=Read opt freq'---
Hg      0.3289916263    -0.0301904529    -0.9248206759
O       0.9777354511    -0.3585031977      1.403465313
H       0.4107094971    -0.9118784281     1.9578362568
H       1.8115477424    -0.2382854037     1.8675468051
O      -1.3497341556    -1.9953662206     1.9115762149
H      -1.2605956803    -2.9364805364     2.1020109945
H      -2.0419822496    -1.6768380767     2.5020295358
O      -3.1739373444    -1.2893615013    -2.1322071531
H      -3.3713124096    -2.0725009289    -2.6558330089
H      -4.0095661067    -0.8410341814     -1.969949983
O       1.8370115352     1.1907301676    -1.5427695046
H       2.1685656653      1.275509004     -2.562865971
H        1.957322184      2.017923967    -1.0630372435
O      -1.2128125577    -1.2984423169    -0.6058445962
H      -2.0633196777    -1.2890498656    -1.1990314229
H      -1.3707788919    -1.5776955569     0.3418556468
O       2.6112488628     1.2856845834    -3.8505638899
H       3.5228313721     1.0334381048    -4.0356541907
H       2.3776881375     1.9970558403    -4.4567681274
