19
    file 'w6s18.log' at: ---' #p PBE1 gen pseudo=Read opt freq'---
H        3.855485738    -1.7101777512     0.7066735919
O       3.2077382579    -1.7330947163    -0.0040845864
H       3.6459097921    -2.1257998294    -0.7656888321
H       2.1448016129    -0.7261590455    -0.1961631722
O       1.3512883444    -0.0967700087    -0.3805877469
H       1.5986704208      0.860944295    -0.3376984747
H      -2.0290632387    -1.8378423185     2.3429825932
O      -2.1593777837    -1.3427534395      1.523947289
H      -2.8469212572    -1.7770492515     1.0010988371
H       2.1782958822     3.0208549203     0.3282652115
O       1.5897630783     2.5684660566    -0.2870481459
H       1.7218008712     3.0105886629    -1.1340588334
H      -0.2770299335     2.3989830085     0.2774351681
O       -1.035981974     1.8161323743     0.4447521908
H      -1.6657927272     2.2897127184     0.9971447379
H      -2.7818590604      -0.37136255    -1.7150836725
O      -2.2516240044    -1.0634663618    -1.3032286734
H      -2.1237913542    -1.7349313585    -1.9832223729
Hg     -0.5489526643    -0.4999754051     0.3527048909
