19
    file 'w6s16.log' at: ---' #p PBE1 gen pseudo=Read opt freq'---
Hg      0.3283504553    -0.0072607444     0.0787270727
O       1.8794967685     1.7868997298     0.1782813238
H       2.3644128248     1.9084045221     1.0029859758
H        1.729178534     2.6677297124    -0.1837925759
O      -2.7594449687     2.3784806843     0.3737974118
H      -3.2578956324     2.7469880956    -0.3619431019
H      -3.1917307687     2.6906890037     1.1750771556
O       1.5541872656    -0.7311380747     2.0068395077
H       2.2490828487      -1.39585356     1.9469387185
H       1.1709255613    -0.8191057632     2.8865128871
O       2.0764806652    -0.8198672009     -1.034108169
H       2.0050348886    -1.4767223316    -1.7378065819
H       2.7385716629    -0.1693695139    -1.3002057291
O      -1.7012090059     0.0800235437     0.4021816814
H       -2.162727162     0.9879346781     0.3514125499
H       -2.274940155    -0.6725375493     0.0196663465
O      -3.0305422589    -1.8804266944    -0.4768636143
H      -3.5449507577    -1.8904025068    -1.2896136421
H      -3.5022247654    -2.4385740306     0.1493437836
