19
    file 'w6s13.log' at: ---' #p PBE1 gen pseudo=Read opt freq'---
Hg     -0.1172739736     -0.113035559     0.1455769302
O       3.0445852838    -2.0918453835    -1.3274934588
H       3.5455516473    -2.8098104488    -0.9265764408
H       3.4873095768    -1.8674416788    -2.1521291893
O      -0.3482866508     -0.570007257     2.5353558754
H       0.3304139855    -0.9784601418     3.0822016773
H      -1.1792503619    -0.6904803179     3.0059125692
O      -3.2133524834     -1.797062532    -1.6785859148
H      -3.4463320445     -1.648345866    -2.6008133241
H       -3.895261389    -2.3639696133    -1.3027999364
O       0.5479739448     2.1988505835      0.758328758
H       0.5940332444     2.9838049871     0.2021813057
H       0.4769546744     2.5191726942     1.6639346084
O       1.9363634003    -0.4506896817     0.1605449505
H       2.4249907382    -1.1081746429    -0.4892567428
H       2.4521622922      0.354937089     0.2824453141
O      -2.1593047756    -0.0995064802    -0.2319708171
H      -2.6203268222     -0.791632331    -0.8766175657
H       -2.583187937     0.7620461702    -0.3118092086
