19
    file 'w6s15.log' at: ---' #p PBE1 gen pseudo=Read opt freq'---
H      -1.1071113129     2.6155684029    -1.0807342071
O      -1.1038589936     1.6702961754    -1.2621916337
H      -1.6320599159      1.530715088    -2.0546459981
H       1.6306646958     2.1415508065     1.4084092954
O       0.8029939666     1.6566108721     1.4875186967
H       0.3646564593     1.9698162905     2.2851611496
H       2.0408878846      0.872987826    -2.0728863821
O        1.931947178     0.2613066684    -1.3377365775
H       2.7593657893     -0.221466261    -1.2440684705
H       -2.038552707    -0.8749181783     2.0753248821
O      -1.9333465123    -0.2634988254     1.3394170839
H      -2.7613597526      0.218987354     1.2495380984
H        1.630218938     -1.533755883     2.0529902549
O       1.1028679554    -1.6697941621      1.259351126
H       1.1026214753     -2.614743508     1.0762259814
H      -0.3603759172    -1.9651668024    -2.2845079838
O      -0.8002694245     -1.655391841    -1.4863903591
H      -1.6281065569    -2.1406462783    -1.4110064595
Hg     -0.0013432494     0.0019522559     0.0010215031
