19
    file 'w6s22.log' at: ---' #p PBE1 gen pseudo=Read opt freq'---
Hg      0.6271024504     -0.324737747    -0.0165101126
O      -0.5766787511    -1.9124744002     0.6600216889
H      -0.4606655159    -2.7796623119     0.2559318236
H      -1.5985639727     -1.693786399     0.7911089941
O       1.7315773978     0.8863241429     1.7093431449
H       2.0788882519     0.4475470053     2.4949260818
H       1.4222122375     1.7518710398     2.0006250286
O      -2.9097263428    -1.2465723463     1.0318439055
H      -3.3687665386    -0.6565079919     0.4126326737
H      -3.5542217832    -1.7700784938     1.5166398807
O      -0.8101679167     1.3034503624    -0.7925562446
H      -1.7870200846     1.1839487141    -0.8521441739
H      -0.5474094939     1.9583163546     -1.446542906
O      -3.4997516516     0.8460624587    -0.7753652706
H      -4.0100841539     1.5536001172    -0.3635828444
H      -3.9491018874     0.6663648229     -1.609519642
O        2.386838006     0.4235102987    -1.1410306252
H       3.1081271338      0.785329149    -0.6103560016
H        2.775562615    -0.0368047756    -1.8955154008
