19
    file 'w6s24.log' at: ---' #p PBE1 gen pseudo=Read opt freq'---
H      -2.3085137411     1.6416413865    -0.0140333776
O      -1.6802973563     2.3809165173    -0.1119407721
H      -2.0919551955     3.1931275632      0.199513246
H       1.2538148496     2.5777667272    -0.4960879089
O       0.7210355373     2.0049601239     0.0699652888
H      -0.3314508585     2.2251256568     -0.010460785
H      -2.0914591639    -3.1935985525    -0.1996066863
O      -1.6797116102    -2.3814448286     0.1118696344
H      -2.3080560345    -1.6422327994     0.0145231885
H        1.254591411    -2.5778869406     0.4957338182
O       0.7216733029    -2.0052095207    -0.0703214144
H       -0.330631213    -2.2255293076     0.0102188549
H      -3.8564093476    -0.0227197003     0.7637977643
O      -3.2661025547    -0.0002337589     0.0004347722
H      -3.8567635682      0.022010628    -0.7626611263
H       4.0896268933     0.3755171223     0.6740336919
O        3.513257454     0.0005006229     -0.000726243
H       4.0895504106    -0.3743658209    -0.6756350549
Hg      1.1040607848    -0.0000451186    -0.0002368908
