19
    file 'w6s3.log' at: ---' #p PBE1 gen pseudo=Read opt freq'---
Hg     -0.7282798556    -0.4783677541    -0.0613633617
O       5.4994569911     1.5775663079     -0.429983417
H       5.7207118624     2.4257214044    -0.0304686445
H       6.3538822227     1.0231104538    -0.6913797089
O       3.6806118697     0.3618897506      0.746924187
H       3.7808057073     0.0440899834     1.6471412051
H       4.7470858896     1.0759687978     0.0868748029
O       7.4579739384      0.249073919    -1.1218054473
H       8.2408897086     0.0922744344    -0.5859658303
H       7.7334976298      0.259893153    -2.0433627048
O      -2.2796883057    -1.6873079016    -0.5532530875
H      -3.0557841616    -1.9536132231     0.1212236876
H      -2.5924159346    -1.6756514305    -1.4643936792
O      -3.9998768426    -2.3352553514     1.0653213625
H      -4.8652727237    -1.9167557468     1.1191438472
H      -4.1163283231     -3.268581515     1.2723447588
O       0.8387308878      0.571955092     0.4126105871
H         2.72935279     0.4316230106     0.5591688512
H       0.5582666495     1.4679166155     0.6317725917
