19
    file 'w6s5.log' at: ---' #p PBE1 gen pseudo=Read opt freq'---
Hg      0.0000216308     0.0711573964     0.0004078097
O      -1.9727570664     0.1005958618     0.1393946299
H      -2.4786088427    -0.6362689196     0.6663415291
H       -2.539322415     0.6367644978    -0.5455333028
O      -3.1039010307    -1.6613442784     1.4764925902
H      -3.5672680079    -2.4149737374     1.0979877716
H      -3.5599550952    -1.4320961484     2.2925688954
O       1.9728061709     0.1005890641    -0.1385272492
H       2.4784153242    -0.6336776488    -0.6693100402
H       2.5395821701     0.6329845273     0.5491814166
O       3.2464208159     1.4552634443     1.5073872164
H        3.721507639      1.091481733     2.2609361663
H       3.7252577627     2.2411099506     1.2251954668
O        3.103370529    -1.6552726343    -1.4841694539
H         3.55961041    -1.4223658505    -2.2991047502
H       3.5665226646    -2.4107185675    -1.1090384815
O      -3.2462036886     1.4654330755    -1.4981968098
H      -3.7217935023     1.1067700415    -2.2538787594
H      -3.7243524681     2.2498591928    -1.2109326449
