   11

 S        0.000017    0.000039    0.000243
O        -0.862708   -0.662192    1.014388
O         0.862064   -1.014415   -0.662324
O         0.862840    1.013859    0.662846
O        -0.862183    0.662996   -1.013867
O        -3.358017   -0.000177   -0.000626
H        -2.693268   -0.390966    0.599620
H        -2.693444    0.391058   -0.600755
O         3.357978   -0.000091   -0.000628
H         2.693482   -0.600422   -0.391611
H         2.693172    0.599863    0.390544

