   29

 S       -0.099204    0.212700   -0.502164
 O       -0.614025    1.274511    0.418317
 O        1.261789    0.593921   -0.949071
 O       -1.001211    0.066362   -1.642962
 O       -0.018990   -1.061819    0.267953
 O        2.523656   -2.218464    0.627633
 H        1.605221   -1.964597    0.420972
 H        2.882012   -1.379480    0.959987
 O        0.898418    3.476937   -0.663734
 H        1.351042    2.700982   -1.019473
 H        0.200285    3.022700   -0.169701
 O        2.961559    0.522546    1.330372
 H        2.487950    0.653589    0.488081
 H        2.239961    0.550556    1.978170
 O       -3.469207   -1.138801   -1.450314
 H       -3.298269   -1.612775   -0.623295
 H       -2.588533   -0.760506   -1.648949
 O       -3.403739    0.999584    0.575692
 H       -3.580824    0.494518   -0.231250
 H       -2.452400    1.210523    0.504373
 O       -2.566641   -1.719787    1.253464
 H       -2.891566   -0.810450    1.333087
 H       -1.651856   -1.592375    0.935262
 O        3.114496   -1.311880   -2.083129
 H        3.073078   -1.802161   -1.249854
 H        2.447523   -0.625041   -1.926975
 O        0.479483    0.292240    2.792693
 H        0.044225    0.863988    2.133228
 H        0.394728   -0.555477    2.335658

