   20 

 S       -0.490672    0.000281   -0.325729
 O       -1.939529   -0.007794   -0.630265
 O       -0.146988   -1.206220    0.476727
 O       -0.157903    1.216564    0.466959
 O        0.296910    0.000217   -1.574116
 O        2.328536   -0.998324    1.621078
 H        2.458500   -0.044459    1.518036
 H        1.407840   -1.120311    1.292994
 O       -2.684064    2.518062    0.405528
 H       -1.742235    2.424807    0.619531
 H       -2.782775    1.659969   -0.039293
 O       -2.652645   -2.544846    0.402205
 H       -1.714119   -2.435855    0.623259
 H       -2.762064   -1.689196   -0.044727
 O        2.531553    1.703049    0.451024
 H        2.790382    1.120036   -0.277215
 H        1.549221    1.628758    0.442046
 O        2.903562   -0.681752   -1.257296
 H        2.855209   -1.047092   -0.362262
 H        1.955338   -0.492784   -1.455447

