   17

 S       -0.000084   -0.688639    0.002722
 O       -0.153086    0.177280   -1.203091
 O        0.153795    0.188839    1.200116
 O        1.207157   -1.529807   -0.138594
 O       -1.208364   -1.526976    0.152089
 O        2.956359    0.184694    1.108123
 H        2.623079   -0.586777    0.606133
 H        2.084273    0.497638    1.407948
 O       -2.956077    0.175515   -1.109715
 H       -2.621877   -0.590744   -0.600138
 H       -2.084457    0.485446   -1.413967
 O       -2.301932    1.577108    1.459497
 H       -1.424571    1.143487    1.464807
 H       -2.681751    1.226026    0.642644
 O        2.302113    1.564837   -1.471582
 H        1.424911    1.130761   -1.473834
 H        2.682025    1.220458   -0.651895

