   14

 S        0.000289   -0.367694    0.000245
 O        0.812212   -1.212703    0.902492
 O       -0.908037    0.501972    0.806168
 O       -0.810588   -1.213596   -0.902101
 O        0.907579    0.503190   -0.805499
 O       -3.372255   -0.604113   -0.010242
 H       -2.782192   -0.020140    0.496414
 H       -2.658216   -1.034684   -0.517616
 O       -0.002366    3.031527   -0.000101
 H       -0.541233    2.375688    0.476987
 H        0.537307    2.376263   -0.477091
 O        3.373154   -0.601704    0.009041
 H        2.782790   -0.017252   -0.496672
 H        2.659330   -1.033358    0.516005

