  13
   W4S11At
At       1.4071590000      0.0000130000      0.0273630000
H       -2.8002500000      0.7626890000     -0.3940230000
O       -3.3951420000     -0.0000940000     -0.4950340000
H       -2.8002690000     -0.7628810000     -0.3939460000
H       -1.4323860000     -2.3033580000      0.7972240000
O       -1.4628100000     -2.0644190000     -0.1323300000
H       -0.6428430000     -1.5376800000     -0.2327620000
H       -5.0351990000      0.0000020000      0.1827870000
O       -5.9772020000      0.0000650000      0.4519950000
H       -6.4377340000      0.0000950000     -0.3876570000
H       -0.6428950000      1.5376490000     -0.2327500000
O       -1.4629000000      2.0643350000     -0.1323660000
H       -1.4325410000      2.3033020000      0.7971830000
