  16
   W5S18At
At       0.8930800000     -0.6250120000     -0.0494770000
H        0.8964920000      3.1250090000     -0.8133190000
O        1.5888930000      2.8875480000     -1.4412060000
H        1.6394040000      1.9299410000     -1.3214460000
H       -2.4649150000      0.3263050000      0.8321710000
O       -2.5404330000      0.4540620000     -0.1289690000
H       -1.6993150000      0.0703250000     -0.4350270000
H        0.0167470000      1.7526270000      0.5940650000
O       -0.5365210000      2.5456130000      0.7314610000
H       -1.3434800000      2.2861390000      0.2663590000
H       -4.0426830000     -0.2563370000     -0.9289020000
O       -4.8171360000     -0.6784050000     -1.3440240000
H       -4.5262270000     -1.5815230000     -1.4767130000
H       -1.1997520000      1.2452370000      2.3788820000
O       -1.4949970000      0.3416320000      2.5544280000
H       -0.7864830000     -0.1753070000      2.1359650000
