  16
   W5S11At
At      -0.8669200000     -0.5703760000     -0.0241830000
H        0.4033570000      2.6074290000      1.3843350000
O       -0.5461430000      2.7732940000      1.4699700000
H       -0.9040180000      1.8827640000      1.3262810000
H       -0.5489950000      1.8814730000     -1.4959410000
O       -0.2768950000      2.8105990000     -1.4616640000
H       -0.5463400000      3.0510130000     -0.5617050000
H        1.5119970000      2.2137670000     -0.5803440000
O        1.9095800000      1.7251820000      0.1569300000
H        1.3278620000      0.9441250000      0.1909400000
H        1.4514660000     -1.8376770000     -0.1112240000
O        2.3153810000     -2.2467800000      0.0787290000
H        2.2709410000     -2.3792100000      1.0287120000
H        3.6258060000      0.6860860000     -0.0548610000
O        4.2718950000     -0.0313310000     -0.1112700000
H        3.7055690000     -0.8155660000     -0.1321620000
