  16
   W5S24At
At      -1.5953820000     -0.1718030000     -0.0030720000
H        2.2487550000      1.9443630000     -0.0608350000
O        3.0917160000      1.4647350000     -0.1884900000
H        3.3426530000      1.1271920000      0.6827610000
H        4.4954340000     -0.8152820000      0.8804930000
O        3.9614030000     -0.6293680000      1.6642580000
H        3.1048130000     -0.9946320000      1.3938200000
H        2.0078630000     -0.2339380000     -0.3330980000
O        1.8136690000     -1.1697550000     -0.1731320000
H        0.8387770000     -1.1706520000     -0.1309150000
H        4.1655350000      0.0631620000     -1.2177060000
O        4.4992060000     -0.8425160000     -1.2847350000
H        3.6812660000     -1.3530490000     -1.2281620000
H        0.2390230000      2.9773590000     -0.7265760000
O        0.5733700000      2.5823270000      0.0824890000
H       -0.0315440000      1.8153080000      0.1982270000
