  16
   W5S5At
At      -1.0663880000     -0.5152980000     -0.0023200000
H        0.3163780000      2.8532770000      0.5800210000
O       -0.1487600000      3.0596810000     -0.2498280000
H       -0.7613390000      2.3099090000     -0.3039950000
H        0.9789310000      2.1591830000     -1.4980790000
O        1.3971290000      1.4299670000     -1.9926850000
H        0.7128410000      0.7475320000     -1.9224670000
H        1.6201780000     -0.4051280000      0.2723400000
O        2.4809390000      0.0450140000      0.1946960000
H        2.3298750000      0.5845260000     -0.6068000000
H        1.7380190000      1.3213830000      1.5819990000
O        1.0077330000      1.7720710000      2.0343130000
H        0.2801830000      1.1521270000      1.8680270000
H        4.3056320000     -2.4244940000     -0.4742820000
O        4.6626050000     -1.7318910000      0.0830900000
H        3.9250930000     -1.0967400000      0.1437910000
