  19
   W6S18At
At       0.3287540000     -1.2809220000     -0.0388890000
H        3.1756790000      2.8227210000     -0.0342490000
O        4.0801720000      3.1604020000     -0.1653370000
H        4.4855750000      2.4881400000     -0.7144980000
H       -1.8741890000      1.4034510000      1.0212710000
O       -2.3736410000      1.0837040000      0.2446870000
H       -1.9479020000      0.2218890000      0.0907150000
H        0.2133810000      1.9812870000      1.7059320000
O       -0.4585010000      1.5348610000      2.2464980000
H       -0.2422230000      0.6048820000      2.0783450000
H        1.4726210000      1.1283410000      0.1783340000
O        1.4793410000      2.1034440000      0.1572930000
H        0.8533020000      2.2711350000     -0.5727450000
H       -1.2697940000      1.8013510000     -1.2067460000
O       -0.5200520000      1.8642860000     -1.8223780000
H       -0.2150070000      0.9444630000     -1.8309010000
H       -4.1978680000      1.3190030000      0.0267140000
O       -5.1243830000      1.5094440000     -0.2029760000
H       -5.0611750000      1.8425710000     -1.0989290000
