  19
   W6S25At
At      -0.7903170000     -0.8402480000     -0.1342340000
H        3.1447710000     -1.1816350000      0.8726900000
O        2.6074860000     -1.7918230000      1.3999660000
H        1.7091260000     -1.6132640000      1.0947010000
H       -1.2220130000      2.2465640000      1.8070770000
O       -0.3793120000      1.9577480000      2.1740320000
H       -0.2977060000      1.0659250000      1.7952520000
H        4.3138370000     -0.6543570000     -1.1177200000
O        4.1361420000     -0.0412580000     -0.4024520000
H        3.3705850000      0.4803400000     -0.7321810000
H        0.6297060000      3.0162380000      0.8507550000
O        0.7686060000      3.4384320000     -0.0133740000
H       -0.1127640000      3.3486390000     -0.4026100000
H       -1.6275140000      1.5221900000     -0.4349920000
O       -1.9187090000      2.4600840000     -0.4475470000
H       -2.6555250000      2.4565260000     -1.0621200000
H        1.6266530000      2.0564010000     -0.9238060000
O        1.9226220000      1.2347760000     -1.3585860000
H        1.2031360000      0.6138440000     -1.1534470000
