19
    file 'w6s11_re-opt.log' was gotten at: ---' #p mp2=full gen pseudo=Read freq'---
Hg           0.33182           0.0717         -0.26049
O            4.12098          1.05647         -0.06716
H            4.59046          1.76062         -0.53322
H            4.81092          0.49671          0.31148
O           -5.53296          1.00679         -0.34602
H            -5.9799          1.30816         -1.14557
H            -6.1874          1.01257          0.36158
O           -3.73583         -0.62877         -0.56467
H           -3.99663         -1.53854         -0.37118
H            -4.5419          0.06291         -0.43383
O            1.51771          1.73285          1.22014
H            1.14778          2.43748          1.76337
H            2.47479          1.82089          1.30274
O            2.10217          0.09571         -1.23807
H            2.95198          0.44156         -0.77819
H             2.3204         -0.62915         -1.83898
O             -1.479         -0.03955           0.4684
H           -1.43873           0.0213          1.43275
H           -2.85519         -0.39341         -0.11548
