19
    file 'w6s10_re-opt.log' was gotten at: ---' #p mp2=full gen pseudo=Read freq'---
Hg          -0.10449          0.27043         -0.12521
O            2.94298          2.45467          0.30594
H            3.26698           2.8918          1.10172
H            3.52729          2.73436         -0.40737
O            3.02985         -1.85717          0.11576
H             3.6111         -2.03167         -0.63304
H            3.42747         -2.30886          0.86896
O           -1.97426           0.3908         -0.81851
H           -2.82806          0.39999         -0.16468
H           -2.12943          0.95629         -1.58795
O           -0.87738         -1.72186          1.18247
H           -0.91863         -1.80465          2.14211
H           -1.01357         -2.61645          0.84983
O           -3.88886          0.34634          0.68947
H           -4.54901         -0.34593          0.56085
H           -4.37169          1.14501          0.93538
O            1.76527          0.26201          0.49953
H            2.30312          1.13518          0.38853
H            2.32458         -0.58669          0.31761
