19
    file 'w6s18_re-opt.log' was gotten at: ---' #p mp2=full gen pseudo=Read freq'---
H           -2.29063          1.64864          0.10932
O           -1.60868           2.3236          0.27501
H           -2.03408          3.17375          0.43168
H            1.15819          2.42805         -0.91201
O            0.75926          1.97962         -0.15103
H           -0.27757          2.21866           -0.039
H           -2.03314         -3.17424         -0.43142
O           -1.60793         -2.32398         -0.27483
H           -2.29006         -1.64924         -0.10902
H            1.15976         -2.42734          0.91064
O             0.7602         -1.97907           0.1499
H           -0.27649         -2.21855          0.03847
H           -3.86876         -0.02927          0.76048
O           -3.27219          -0.0003          0.00027
H           -3.86901          0.02843         -0.75976
H            4.03113           0.5186          0.56521
O            3.44541         -0.00034          0.00014
H            4.03118         -0.51908         -0.56507
Hg           1.02967          0.00036          -0.0006
