19
    file 'w6s16_re-opt.log' was gotten at: ---' #p mp2=full gen pseudo=Read freq'---
H             6.0328          0.64763         -0.04446
O            5.28995          0.38671         -0.60208
H            5.65815         -0.03066         -1.38923
H            1.11117          1.48485          1.30014
O             1.1125          1.04379          0.43805
H            2.46461          1.44397         -0.29578
H           -2.60556          -3.8401          0.74082
O           -2.52949         -2.99526          1.19798
H           -3.02164         -3.09259          2.02027
H           -3.08335         -0.34841         -0.33646
O            -2.2369         -0.88783         -0.11961
H             -2.417           -1.733          0.43531
H             3.2382          2.42134         -1.35342
O            3.34234          1.83172         -0.59651
H            4.20518          1.18151           -0.652
H           -4.90373          0.82961         -0.16509
O           -4.21344          0.50956         -0.75575
H           -4.63448          0.38386         -1.61336
Hg          -0.56899          0.10264          0.21254
