   19

 K                 -0.00055900   -1.52799700    0.00179700
 O                  2.05851700    1.63514400    0.16785500
 H                  1.41547800    1.54405800    0.89196000
 H                  2.54542900    2.45135200    0.30322900
 O                 -0.13171700    0.75273400    1.57332500
 H                 -0.27031100    0.74691200    2.52410700
 H                 -0.90860200    1.19257200    1.18195900
 O                  2.56679800   -1.10243500   -0.06110600
 H                  2.75013600   -0.15610500    0.02323000
 H                  3.41657900   -1.54706700   -0.06888700
 O                 -2.05722900    1.63611500   -0.16860000
 H                 -1.41410000    1.54408000   -0.89253000
 H                 -2.54359500    2.45253900   -0.30464000
 O                  0.13227500    0.75102200   -1.57290200
 H                  0.27076500    0.74342000   -2.52368200
 H                  0.90961700    1.19070500   -1.18231300
 O                 -2.56771700   -1.10136000    0.05816800
 H                 -2.75039100   -0.15484900   -0.02542700
 H                 -3.41779400   -1.54542900    0.06494200

