  13
   W4S2Br
Br       1.4882570000     -0.0999830000     -0.0260650000
H       -0.4641190000      2.6609080000      0.7550740000
O       -0.4648010000      2.4479750000     -0.1810220000
H        0.2021420000      1.7256200000     -0.2274830000
H       -0.2443090000     -1.3602140000     -1.0380720000
O       -1.1065610000     -1.8095210000     -1.1288410000
H       -1.2920250000     -2.0191400000     -0.2044410000
H       -1.9594860000      1.2675810000     -0.4300290000
O       -2.6276750000      0.5616740000     -0.4177050000
H       -2.1900690000     -0.1731190000     -0.8779380000
H       -0.3979610000     -0.6728720000      1.4398290000
O       -1.2870960000     -0.8997220000      1.7623880000
H       -1.8541020000     -0.3326140000      1.2167680000
