  16
   W5S18Br
Br       0.6310610000     -1.2955090000     -0.0763510000
H        2.2500170000      1.4938420000      0.9065900000
O        1.7010310000      1.3640520000      1.6931920000
H        1.3886230000      0.4556650000      1.5427000000
H       -2.2258700000      1.7510990000     -0.1428570000
O       -3.1977400000      1.6274880000     -0.1552820000
H       -3.3960260000      1.5024350000     -1.0850310000
H       -0.2557110000      0.7731710000     -0.3045040000
O       -0.4460880000      1.7343520000     -0.2278790000
H        0.0648970000      1.9451030000      0.5692960000
H        2.1083240000      0.3646960000     -1.0233130000
O        2.4437310000      1.2656410000     -1.1859130000
H        1.6167540000      1.7492530000     -1.2942700000
H       -1.8831200000     -1.4279210000      0.1845920000
O       -2.8458850000     -1.3501180000      0.2587000000
H       -2.9954230000     -0.3958350000      0.2565440000
