  16
   W5S21Br
Br      -1.3833810000     -1.2612540000      0.0653690000
H        4.6062620000     -0.5345430000      0.7556870000
O        4.3701410000     -0.9103800000     -0.0931090000
H        3.4188310000     -0.7076630000     -0.1645350000
H        0.9114070000     -0.7522970000     -0.0044800000
O        1.6767760000     -0.1561810000     -0.1300700000
H        1.3461200000      0.4223940000     -0.8319850000
H       -0.8004350000      0.3965390000     -1.2826670000
O       -0.3531890000      1.0906090000     -1.8239530000
H       -0.5741720000      0.8524640000     -2.7263070000
H       -0.6970890000      0.5480440000      1.5576690000
O       -0.0893180000      1.2295960000      1.8940950000
H        0.7345030000      0.9581060000      1.4689830000
H       -0.4534940000      2.7971400000      0.7598470000
O       -0.5446150000      3.4152160000      0.0175740000
H       -0.5519600000      2.8128310000     -0.7364130000
