  19
   W6S16Br
Br      -1.9223180000     -0.6697480000      0.1188410000
H        2.2586220000      1.1334120000     -0.1111360000
O        2.4926490000      1.0372540000      0.8374540000
H        1.6370070000      1.1560760000      1.2827150000
H        1.3657580000      0.0987860000     -1.7373280000
O        1.6118490000      1.0440270000     -1.7870750000
H        0.7647500000      1.5050040000     -1.6570680000
H        0.0733030000     -1.4775780000     -0.8627770000
O        0.9441170000     -1.6398830000     -1.2696910000
H        1.5384820000     -1.7818970000     -0.5162240000
H        3.8231580000     -1.6922270000      0.3002330000
O        3.0070560000     -1.6320860000      0.7996040000
H        2.8553250000     -0.6611430000      0.8848820000
H       -0.4576210000      1.2991020000      2.7227360000
O       -0.1647110000      1.3598770000      1.8115800000
H       -0.6968700000      0.6670760000      1.3475000000
H       -1.3428640000      1.3978610000     -0.8594940000
O       -0.8789750000      2.2462440000     -0.9991900000
H       -0.6337890000      2.4732510000     -0.0949190000
