  19
   W6S17Br
Br       1.4053060000     -0.9253130000     -0.1924920000
H       -0.1525190000     -0.9665800000      1.3624750000
O       -0.9560530000     -1.0193300000      1.9334940000
H       -0.6183520000     -1.3031460000      2.7851140000
H       -0.7577810000     -1.7234500000     -0.8943280000
O       -1.7149390000     -1.8907340000     -0.8225150000
H       -1.8308390000     -1.8883640000      0.1353490000
H       -2.6668060000      1.1975170000      0.4607290000
O       -2.2709530000      1.4706190000      1.3056240000
H       -1.8802970000      0.6507260000      1.6454860000
H       -0.7335130000      1.9705140000      0.1621210000
O       -0.1718270000      1.9691420000     -0.6314630000
H        0.2816510000      1.1071460000     -0.5776440000
H        1.8109930000      2.5561620000     -0.0667700000
O        2.7069040000      2.3126790000      0.1987730000
H        2.6477090000      1.3481220000      0.1805610000
H       -2.4341850000     -0.2124940000     -1.3401680000
O       -2.7154010000      0.7149520000     -1.4361580000
H       -1.8736160000      1.1911850000     -1.4977390000
