  19
   W6S26Br
Br       2.0931750000     -0.3411760000     -0.3866030000
H        1.1547410000      0.0460500000      1.8471340000
O        0.4397510000      0.2078100000      2.4863190000
H       -0.1980920000     -0.4637920000      2.2161380000
H       -2.0178340000      0.0239180000     -1.3093560000
O       -2.6112720000     -0.6768080000     -0.9781750000
H       -2.0154820000     -1.2077660000     -0.4288300000
H       -0.3112570000     -2.8353960000      0.6047890000
O       -0.5317460000     -1.9018450000      0.5984460000
H        0.2723060000     -1.4743650000      0.2221910000
H        0.1524710000      0.6263700000     -1.6229890000
O       -0.6386870000      1.1828320000     -1.7091700000
H       -0.5130460000      1.7894210000     -0.9616980000
H        0.2186370000      1.9258860000      1.3812240000
O        0.4823650000      2.4724400000      0.6257270000
H        1.1943390000      1.9278160000      0.2542520000
H       -4.1334360000     -0.1826990000     -0.1728990000
O       -4.9458660000      0.0939110000      0.2985320000
H       -4.6208300000      0.7390210000      0.9277300000
