10
    file 'w3s3.log' at: ---' #p PBEQIDH gen pseudo=Read opt freq'---
Hg      0.3717120191    -0.0514127949    -0.0003818334
O       2.2930531372       0.61348399    -0.0000760016
H       2.8508064089     0.6051300913    -0.7881420963
H       2.8507054125     0.6047029532     0.7880567154
O      -1.5019638597    -0.5965938083    -0.0000626636
H      -2.7686716282     0.0723327892      0.000125265
H      -1.5790758266    -1.5562462289    -0.0002395524
O      -3.6728072667     0.5995192432    -0.0000544045
H      -4.2111619757     0.4905076371     -0.795501466
H      -4.2114094208     0.4906121282     0.7952380376
