13
    file 'w4s1.log' at: ---' #p PBEQIDH gen pseudo=Read opt freq'---
H       1.3828431885    -0.2047131825     -2.554241857
O        1.557408742    -0.2341498016    -1.6095730023
H       2.4194127562    -0.6407871009    -1.4861420911
H      -2.5742139802    -0.8840276415     0.5668944331
O      -2.0854620564    -0.3647053798    -0.0779639607
H      -2.6239951856    -0.3061444529    -0.8723664168
H       1.1930676503    -1.9687643597     1.8195523133
O       1.1874918703     -1.023590167     1.6468295153
H        1.550733722    -0.5891765217     2.4233310167
H      -0.5642791533     2.7345215775      0.867880071
O       0.1545903111     2.2166846474     0.4965548302
H       0.8195351602     2.8348657492     0.1826618195
Hg      0.0730144445     0.0258607128     0.0102738238
