13
    file 'w4s2.log' at: ---' #p PBEQIDH gen pseudo=Read opt freq'---
H         3.77659018     0.0649713024    -0.7925294948
O         3.24064358    -0.0756504364    -0.0023249593
H       3.7777999196     0.0718370457     0.7858037545
H      -1.2713722202      0.904877443    -0.0007149211
O      -0.7309061057    -0.0086262492     0.0000032365
H      -1.2797506366    -0.9186232684     0.0022909697
H      -2.3589172342     2.4536685383     0.7705249639
O      -1.8942919342     2.1261233078    -0.0019262724
H      -2.3598745175     2.4514129276    -0.7747554994
H      -2.3744715127    -2.4570929079      0.778805124
O      -1.9094882538    -2.1332742003     0.0049938401
H      -2.3756165306      -2.45992147    -0.7669386482
Hg      1.2112092658    -0.0196620324    -0.0010920938
