13
    file 'w4s3.log' at: ---' #p PBEQIDH gen pseudo=Read opt freq'---
H       4.4906068001     1.3059107316    -0.4110975404
O       4.0624808549     0.6902320629     0.1891378477
H       4.7337261049     0.2706071561     0.7324706622
H      -0.2122700099    -0.8524886081     1.4806299954
O      -0.2500633159    -0.5031096942     0.5848726681
H        1.341037331    -0.4891202511    -0.1786207105
H      -4.4143689013     1.2828099831    -0.0515475321
O      -3.9784999601     0.4892991108    -0.3828532198
H      -4.6477717916    -0.1612371413    -0.6244384736
H       3.1142819881     0.0316999455    -0.2348891796
O       2.1922258002    -0.5139363488    -0.6615224543
H       2.3522755534     -1.388894439    -1.0218231037
Hg      -2.082589454    -0.0389135075     0.1734410405
