16
    file 'w5s10.log' at: ---' #p PBEQIDH gen pseudo=Read opt freq'---
Hg     -0.3868338954    -0.5409977453    -0.2341184962
O       3.1739972619      0.871617855    -0.4947821469
H       3.6873570844     1.2705707962     0.2128331345
H       3.7236918938     0.9509830526    -1.2787006789
O      -1.5477661148    -0.7708427056     1.7449761848
H      -2.0666944463    -0.0673559993     2.1432010038
H      -1.2487999527    -1.3268669719     2.4689672155
O       0.5848390583      1.355321409    -0.5363125659
H       1.5706248587     1.3451708854    -0.5991160651
H       0.2266123245     2.0865553977     -1.044380164
O       1.6822679427    -1.3997729582     0.0240189051
H       1.9724203708    -2.3124108163    -0.0246401282
H       2.4406231892    -0.8158245444    -0.1373923871
O      -1.9025566361    -1.8925541033    -1.0199463487
H      -2.1019039379    -2.0526871139    -1.9463605635
H      -2.6805680014    -2.1129104375     -0.500687899
