16
    file 'w5s1.log' at: ---' #p PBEQIDH gen pseudo=Read opt freq'---
H      -3.0884694532     1.7721038144    -0.5340965325
O      -2.9599425047     0.8209465189    -0.5094882446
H      -3.8681237695     0.2609963224     -0.309690214
H       3.0690275612    -1.7537271869    -0.4900322479
O       2.8625502844    -0.8233839341    -0.3755252523
H       3.7451059483    -0.2234981387    -0.2715530309
H      -5.3922297919    -0.8776755614    -0.8803611437
O      -4.9477431365    -0.4874067645    -0.1257121222
H       -5.611107942    -0.2796145884      0.534127351
H      -0.8443787835     0.2302759402     1.7018597741
O      -0.7653033393     0.2161271021     0.7447338775
H      -2.1360347205     0.5751218452    -0.0035862113
H       5.2568638692     0.9078081155    -0.9541991581
O       4.8070325183     0.5990746475    -0.1654306681
H       5.4684990237     0.4805911658      0.518560674
Hg       1.034395236    -0.3120482981     0.2386021495
