16
    file 'w5s2.log' at: ---' #p PBEQIDH gen pseudo=Read opt freq'---
H      -5.5126796239    -0.9132484311     0.4625802434
O      -4.8564939674    -0.7082336277     -0.205268708
H      -5.2617129201    -0.8285001894     -1.065906386
H       3.3520001577     1.4924178879    -0.1161296546
O       2.8765773378     0.6753952032    -0.2831107806
H       3.5386369387    -0.1349574451    -0.5153241357
H       -3.939107314     0.2338900734    -0.0342767155
O      -3.1577689905     0.9840506864     0.0403241337
H      -3.4576658958     1.8203495618     0.4043441098
H       4.6019276856     -1.306016978    -1.7518054901
O       4.3065830792    -1.1923722138    -0.8464456681
H       5.0074675087    -1.5044191151    -0.2712794244
H      -2.2788692227     0.7105302955     0.4248877249
O      -0.8304324057     0.3315035407     0.9973031606
H      -0.8609042203    -0.0371986638     1.8836911042
Hg      1.0150028528     0.4909064151     0.4114884867
