16
    file 'w5s4.log' at: ---' #p PBEQIDH gen pseudo=Read opt freq'---
Hg     -0.1760887554     0.8822518057     1.7833891373
O       1.6739180581     0.4923328689     1.1304219415
H       2.2515097705     0.9984157675     0.3744180124
H       2.0152368159    -0.3752524856     1.3602176082
O      -2.0085052412     1.4767214241     2.3124220868
H      -2.5002868262     2.4227417208     2.0818920623
H      -2.4731833384     0.9654843388     2.9783112309
O        0.089449956    -1.3063386922     2.9516771731
H       0.3943710706    -1.4388993947     3.8516442815
H      -0.2916366111     -2.146029869     2.6868791988
O       -3.053134164     3.5649533998     1.7435404736
H        -3.82237211     3.5713150686     1.1698244741
H      -3.1608848537     4.2672693325     2.3883382598
O       2.9374308158     1.6934268196    -0.5375566449
H       3.7372112283     2.1593089995    -0.2856166259
H       3.0621261848     1.3610158957    -1.4284606695
