19
    file 'w6s12.log' at: ---' #p PBEQIDH gen pseudo=Read opt freq'---
H      -3.6305970383     2.6535499603    -0.8372832139
O      -3.1416935556     2.4338218105    -0.0439549496
H      -3.6292162765     2.8008454045     0.6942977441
H       2.4997065436     2.1552795192    -0.0630581618
O        2.261517362     1.2319146267    -0.1693772562
H       3.0941005143     0.5992903473    -0.0436503697
H      -2.0389096891    -0.4236522751     0.1330290433
O      -1.6517175831     0.4796608884     0.2625540237
H       -2.307114084     1.2555242076     0.1079693852
H      -0.3925696464     -2.199538536    -0.0815287421
O       0.4355665749    -1.7072145541    -0.0951509252
H       1.1485498472    -2.3408419183    -0.1739690117
H       4.6842556269    -0.3315677692     0.8632047593
O       4.1554149516    -0.2903935927     0.0642084022
H       4.7584066652    -0.3866141732    -0.6756678022
H      -2.8108905895    -2.4236115236     0.7693338973
O      -2.3886026848    -2.0160482354     0.0097766815
H      -2.8727427822     -2.338033156    -0.7536108289
Hg      0.3299778438     0.6869289689     0.0322793247
