19
    file 'w6s17.log' at: ---' #p PBEQIDH gen pseudo=Read opt freq'---
Hg      0.0281720376    -0.3252231003    -0.6637401904
O      -1.8613336553     0.0159680816      0.742136206
H      -2.6893944589    -0.4553811506     0.6332791976
H      -1.8211117471     0.2713147352     1.6657670075
O      -1.4302416947    -1.1676524975    -2.0443446279
H      -1.7638850922    -0.5737892608    -2.7228223043
H      -1.3913938075    -2.0538393721    -2.4143650127
O       2.6255938792    -2.6331094818     1.0078394998
H       2.6688703149    -2.9063611949     1.9246872452
H       3.3290205651    -3.0998447543     0.5565005556
O       3.3735936596     1.5348929828     0.0075215823
H       4.1606607239     1.4760630638    -0.5344718368
H       3.5898228064     2.1312018309     0.7252285465
O       -0.839181561     1.5966842448    -1.7355987051
H      -1.4955551091     2.1208361694    -1.2711526553
H      -0.3536452847     2.2074603831    -2.2943403179
O       1.7432666992    -0.3452112462     0.4295840409
H       2.1560313956     -1.243417173     0.6458252898
H       2.4383633377     0.3680463094     0.2562779171
