19
    file 'w6s16.log' at: ---' #p PBEQIDH gen pseudo=Read opt freq'---
Hg      0.3195364505    -0.0417063424     0.0162804501
O       1.8164243568     1.7786486779     0.2153117611
H       2.2894893039     1.8919998818     1.0427648874
H       1.6983150904     2.6583641651    -0.1496287024
O      -2.7044088509     2.3811792363     0.3234967581
H       -3.196420125     2.7518262071    -0.4094743649
H      -3.1091719157     2.7306677813     1.1181511128
O       1.4883051013    -0.7804704342     1.9532371922
H        2.210972079     -1.410146228     1.9221861341
H       1.1069841107     -0.857443183     2.8299259501
O       2.0806776711    -0.7545204692    -1.0486697039
H       2.0718931217    -1.4067430637    -1.7545483658
H       2.7454253032    -0.0928388587     -1.259864848
O      -1.6775174812     0.0764253076     0.3840162949
H      -2.1300975072     0.9785001148     0.3254919909
H      -2.2657995644     -0.674231845     0.0458353596
O      -3.0352987429    -1.8954969292     -0.400636288
H       -3.549541603    -1.9447941134    -1.2065598429
H       -3.489710798    -2.4433279052     0.2401152248
