19
    file 'w6s15.log' at: ---' #p PBEQIDH gen pseudo=Read opt freq'---
H      -1.0968422822      2.593734137    -1.0701579394
O      -1.0916499998     1.6521692349    -1.2482532199
H       -1.618176848     1.5164340219     -2.037319548
H       1.6173649135     2.1231587846      1.395139464
O       0.7941958258     1.6385273685      1.471336535
H       0.3602553508     1.9525048246     2.2659447348
H       2.0222411747     0.8660616698    -2.0554685631
O       1.9107603635     0.2584550885    -1.3228895212
H       2.7355753657    -0.2208894483    -1.2324011147
H      -2.0201058855    -0.8682199908     2.0577318868
O      -1.9122626538    -0.2605072052     1.3247003355
H      -2.7378859551     0.2180994404     1.2376881226
H       1.6165342251    -1.5193763719     2.0354530433
O        1.090501697    -1.6515329653     1.2454463309
H       1.0926054977     -2.592714252     1.0653022239
H      -0.3557007705    -1.9480320153    -2.2649086236
O      -0.7915283486     -1.637110327    -1.4701384012
H      -1.6146296054    -2.1224064621    -1.3974866586
Hg      -0.001412065     0.0020544677     0.0010709128
