19
    file 'w6s18.log' at: ---' #p PBEQIDH gen pseudo=Read opt freq'---
H       3.8512712566    -1.7241591617     0.7210434191
O       3.2122087066    -1.7263395613     0.0084019183
H       3.6435234242    -2.1335428716    -0.7434702682
H       2.1402863816    -0.7185817588    -0.1802913654
O       1.3470334466    -0.1023954262    -0.3500256422
H       1.5890988265     0.8513531359    -0.3337170992
H      -2.0270909491    -1.8335169386      2.342361964
O      -2.1222123468    -1.3668280226     1.5072480656
H      -2.8331066356    -1.7718252552     1.0011294045
H       2.1382368615     3.0196419961     0.2896531028
O       1.5601058407     2.5512008954    -0.3164378275
H       1.6896879212      2.980006215    -1.1654872101
H      -0.3033217695     2.3692762447     0.2608108047
O      -1.0348385425     1.7698443051     0.4574944566
H      -1.6894183504     2.2542975286      0.962010131
H      -2.7315880588    -0.2923404548    -1.6869944721
O      -2.2067367747    -0.9947235305    -1.2968353733
H       -2.121237879    -1.6634043253    -1.9799572608
Hg      -0.528541359    -0.5216630142     0.3712032524
