19
    file 'w6s1.log' at: ---' #p PBEQIDH gen pseudo=Read opt freq'---
Hg     -0.0000321992    -0.1065808962     0.0052131533
O        5.864010978    -0.3684306752     0.3769014577
H       6.5025052711    -0.7060028313    -0.2513956251
H       6.3173926063    -0.2489344687     1.2119098447
O      -5.8645985055    -0.3786651072    -0.3550959438
H      -6.5036359034    -0.6910393396     0.2855604197
H      -6.3175086177    -0.2915754454    -1.1943564716
O      -3.9279477192     1.0386373003     0.1332747238
H      -4.1284204017     1.7984339388     0.6840616929
H      -4.7683063706     0.4368660197    -0.0381360963
O       3.9285585145     1.0306286442     -0.165578896
H       4.7684761298     0.4351651746     0.0287799187
H       4.1297102323     1.7688441278    -0.7447367476
O       1.7896787872    -0.0847922926    -0.7892715665
H       3.0620540536     0.5489917583    -0.4361304409
H       1.8437468111    -0.6835713329    -1.5359324439
O      -1.7897104479    -0.0537423058     0.7983032998
H      -3.0616466936     0.5670140634     0.4216632391
H       -1.844302525    -0.6240173321     1.5669174822
