19
    file 'w6s21.log' at: ---' #p PBEQIDH gen pseudo=Read opt freq'---
Hg      0.0891488554     0.0755492019     0.0801906686
O      -1.1294996541     1.8071209199    -0.9351530108
H      -1.7445906164     1.7505581994    -1.6686410076
H      -1.4112813235     2.5518764433    -0.4006128822
O      -1.8217703744    -1.2157180001      0.523145051
H      -2.6141358147    -0.9612029343     0.9995109163
H      -2.0886837676    -1.8830033501    -0.1119052152
O       0.2100453297     1.6890211159     1.7825345682
H      -0.1396442896      1.640043507     2.6740869569
H       0.9749023982     2.2663064175     1.8217019839
O       0.3576532486    -1.5924593867    -1.5511120839
H       0.9037495776    -2.3548501553     -1.350287985
H       0.3665004744    -1.4952837844    -2.5050604897
O       1.0538500024    -1.6099449125     1.4005612427
H       0.4797444106    -2.2004831902     1.8919518861
H       1.8909919334    -1.5931389312     1.8679536284
O       1.8655950664     1.3750979302    -0.7387908675
H       2.7758924831     1.1122530408    -0.8864678128
H       1.6783223906     2.0731079787    -1.3692693475
