19
    file 'w6s5.log' at: ---' #p PBEQIDH gen pseudo=Read opt freq'---
Hg     -0.0000371174     0.0531184323     0.0008931272
O      -1.9567112697     0.0766267403     0.1198398135
H      -2.4653288608    -0.6359340156     0.6587579013
H      -2.5184530385     0.6198177447    -0.5487276331
O      -3.0913405902    -1.6468058297     1.4891286043
H      -3.5409792526    -2.4141164954     1.1340001432
H      -3.5388019697    -1.4160959121     2.3040531717
O       1.9566449123     0.0773630707    -0.1178179418
H       2.4651327427    -0.6305016145    -0.6629880338
H       2.5184739899     0.6146182502     0.5554398693
O       3.2171558924     1.4480809081     1.5133055421
H       3.6787832672     1.1012407564     2.2772568638
H       3.6844304919     2.2390780463     1.2422111244
O       3.0910795212    -1.6340520761    -1.5022752951
H       3.5386206928     -1.396189769    -2.3150966276
H       3.5404580778    -2.4046763275    -1.1540612415
O      -3.2169648164     1.4617369854    -1.4992629272
H       -3.678683872     1.1215671529    -2.2661527393
H      -3.6841258008     2.2504149523    -1.2213017213
