19
    file 'w6s6.log' at: ---' #p PBEQIDH gen pseudo=Read opt freq'---
Hg     -0.5523345521     -0.084920134    -0.1579200531
O       1.1801487803     3.0366421671     0.1207783755
H       1.5429343961     3.5390666664    -0.6079850927
H       1.1545014949     3.6394860572     0.8631702696
O      -2.3991652887    -0.6920313107    -0.6369185542
H      -3.2448810289    -0.6291361539    -0.0075043793
H      -2.6449671279    -0.7710688066    -1.5607749999
O        1.246465755     0.4249457556     0.3291239223
H       1.3181716906      1.409223684     0.2737714445
H       2.4246405787    -0.3430512734     0.7113465644
O      -4.2976833023    -0.5764340332      0.882099897
H      -4.9748196642     0.0997644835      0.831167252
H      -4.7199120198    -1.3826636233     1.1830542479
O       3.2187738443    -0.9289118321     1.0045260078
H       4.0784299248    -0.9222650988      0.406908716
H        3.420914805    -0.8295843501     1.9371791335
O       5.1966135879    -0.9923862778     -0.440501994
H       5.9385952412    -0.3890853414    -0.3967928248
H       5.5330788852    -1.8383765781    -0.7378789324
