13
    file 'w4s1.log' at: ---' #p HF gen pseudo=Read opt freq'---
H       1.1420065561    -0.6344120504    -2.5742432143
O       1.4655202978    -0.3862486344    -1.7182045281
H       2.4126183501    -0.4063823856    -1.7568014498
H      -2.4373374185     -1.206060777      0.175692601
O      -1.9935973636    -0.4643961655    -0.2142749797
H      -2.6279016962    -0.0030720162    -0.7469333095
H       1.3840402929    -1.9374987156     1.8503403822
O       1.1094165364    -1.0300629309     1.8559374498
H        1.302218101    -0.6812959982     2.7163064839
H      -0.4018066506     2.8387587322     1.0916739051
O       0.1847702578     2.3716858647     0.5114512313
H       0.7591334831     3.0126709375     0.1135911915
Hg      0.1910667233     0.1221882187     0.1091547316
