13
    file 'w4s2.log' at: ---' #p HF gen pseudo=Read opt freq'---
H       3.8900781659     0.0063709658    -0.7805598471
O       3.3402049155      0.006362478    -0.0031529064
H       3.8911889741     0.0082121866     0.7734643677
H       -1.284186946      0.832430691     0.0000181363
O      -0.7464613826    -0.0015627736    -0.0002049543
H       -1.281892822    -0.8374038914     0.0012817081
H      -2.4093895336     2.6019335945     0.7595891842
O      -1.9957201072     2.2204615048     0.0000416092
H      -2.4106914982     2.6009687745     -0.759281453
H      -2.4026624553      -2.60631855     0.7639711232
O      -1.9898620457    -2.2254432585     0.0036418849
H      -2.4038065504    -2.6084219561    -0.7550072182
Hg      1.2547552853     0.0024502346    -0.0016616347
