16
    file 'w5s1.log' at: ---' #p HF gen pseudo=Read opt freq'---
H      -3.1561736242     1.8093565342    -0.5273952701
O      -3.0154360723     0.8704862327    -0.5055187524
H      -3.8624955934     0.3338260525    -0.3300878851
H       3.1710624433    -1.8308124086     -0.533888485
O       2.9405800346    -0.9425700759    -0.3004832561
H       3.7464776233    -0.3654009227    -0.2652131563
H      -5.5350171814    -0.8873219982    -0.8625561503
O      -5.0932115865    -0.4455062139    -0.1534506748
H      -5.6879201868    -0.4006706324     0.5792741457
H       -0.888493798     0.2634391931     1.6715532883
O      -0.7718370593     0.2158417802      0.735466768
H      -2.2006684068     0.6097164532    -0.0256006815
H       5.3641609728     1.0135957196    -0.9411902237
O       4.9626888077      0.606876583    -0.1888493139
H       5.6027148924     0.6129814822       0.50609875
Hg      1.0537097346    -0.3581467792     0.2600498973
