16
    file 'w5s3.log' at: ---' #p HF gen pseudo=Read opt freq'---
Hg      0.4978877868    -2.4886430512     1.3888290475
O        1.973670599     -3.566903297     0.4873259376
H       2.1016988371    -3.6598901112    -0.5054158592
H       2.6341831971     -4.050010765     0.9662276944
O       -0.960063567    -1.4234099541     2.2636991439
H       -0.848085011    -0.4797698561       2.52890819
H      -1.8219368626    -1.8186152052     2.5361415315
O      -3.1568841609    -2.5876463195     2.9061302301
H      -3.3833756209    -2.8745600486     3.7774175007
H      -3.9670585922    -2.4944593803     2.4289084672
O      -0.5256464956     1.0293952725     2.8864793128
H      -0.8662480169     1.7681294267     2.4057751599
H      -0.3179689711     1.3394032536     3.7545424034
O       2.2320974834    -3.7544242982    -2.0045604071
H       1.9755325249    -4.5101390653    -2.5116050172
H       2.8756848699     -3.281132601    -2.5103443354
