16
    file 'w5s4.log' at: ---' #p HF gen pseudo=Read opt freq'---
Hg     -0.1025728009      0.637098635     1.8716544934
O       1.7680889973     0.3148247276     1.0176277841
H       2.2318525096     0.9197729947     0.3825748672
H       2.2928891816    -0.4528128081     1.1965477214
O      -1.9573919807     1.3788323958     2.4566178795
H      -2.3662669293     2.2313794712     2.1561326675
H      -2.5281459145     0.9258979725     3.0614278084
O      -0.1801561151    -1.4223048266     3.1939558391
H       0.1303837887    -1.5393382994     4.0809632708
H      -0.5271114657    -2.2598926441     2.9201257624
O      -2.9417083191     3.5849498873      1.637370189
H      -3.6163343446     3.6580857497     0.9797262027
H      -2.9594077535     4.3831846082      2.142812645
O       2.8961055225     1.9219998947    -0.6107058017
H       3.5959646896     2.5133823877    -0.3795537265
H       2.9389729344     1.7936568538    -1.5459356022
