19
    file 'w6s11.log' at: ---' #p HF gen pseudo=Read opt freq'---
Hg      0.4317971215     0.0357539651    -0.7331464115
O       0.9983481507    -0.4586279986     1.5394478503
H        0.397328398    -0.9760524246     2.0622691707
H       1.7658727337    -0.2839813931     2.0627247521
O      -1.4259041744    -2.0464410802     2.0964582926
H      -1.3465661739    -2.9727930052     2.2710135387
H      -2.0774338844    -1.7250191489     2.7022818561
O      -3.1011654997    -1.3673075637    -2.3381047904
H      -3.2060013749    -2.1350685938    -2.8777195976
H      -3.9107529013     -0.884138266     -2.389744388
O       1.9606322572     1.2339236065    -1.5120140915
H       2.1691230185     1.3299912267    -2.4731269983
H       2.4937975096     1.8228455536    -0.9976501057
O      -1.2941742663    -1.0988350442    -0.4850637139
H       -2.001918679    -1.2245144573     -1.148414413
H       -1.497937387    -1.5030460886     0.3622837423
O       2.4454216706     1.4157504717    -4.0235593313
H       3.1681216808     0.9869686398    -4.4553333163
H       2.1810248003     2.1353066011    -4.5756270455
