19
    file 'w6s14.log' at: ---' #p HF gen pseudo=Read opt freq'---
Hg      0.0895073608     0.0036749356    -0.5242917058
O      -3.1315458452    -1.1966275655     1.6252064046
H      -3.7941731492    -1.8331023581     1.3995842155
H      -3.3675616654    -0.8750431832     2.4830916697
O       1.8571347874     1.2848292744    -0.6100998083
H       1.8292964669     2.2540143324    -0.7181429488
H       2.7338334583     1.0239814193    -0.3708574822
O      -0.4038349912    -1.6654306553     0.9559430124
H      -1.2715012059    -1.7211342788     1.3495493839
H        0.156094831     -2.322030346     1.3422408942
O       0.3284462957    -1.1393900774    -2.5693408404
H      -0.1784573893    -1.8809209072    -2.8667659391
H       0.9472999953     -0.931429252    -3.2543329975
O      -2.1017052941     0.5669255293     -0.341369556
H      -2.6705912075     0.1142715646     0.2779454459
H      -2.5899765918     1.2493186098    -0.7768693385
O       1.6670524145      3.882968349     -0.926545617
H       1.7243777092     4.5175926501    -0.2297457343
H       1.9012452883     4.3342244878    -1.7222808023
