19
    file 'w6s12.log' at: ---' #p HF gen pseudo=Read opt freq'---
H      -3.6908628932      2.936469278    -0.7540615391
O      -3.2534177537     2.5808917182     0.0034705214
H      -3.6864296298     2.9392909573     0.7622152266
H       2.5523211522     2.2219979145    -0.0128766987
O        2.318593158     1.3046788178    -0.0099523944
H       3.1279169563     0.7422560344    -0.0103014978
H        -2.17581951    -0.3797502342     0.0051904017
O      -1.7304174503     0.4706733406     0.0013898226
H      -2.3487634036     1.2283272964     0.0025381046
H      -0.3892490822    -2.2840667763     0.0061731488
O       0.4220767359    -1.7898317785     0.0029482815
H       1.1433842906    -2.4004098295     0.0032036477
H       4.9226901546    -0.3867448333      0.747410529
O       4.3751148927    -0.2483047176    -0.0102553363
H       4.9189398794    -0.3908484548    -0.7698605979
H      -2.9254006245    -2.5545442997     0.7668201385
O      -2.4987921304    -2.1788861273     0.0106907727
H      -2.9287098478    -2.5578000058    -0.7419334492
Hg      0.3502671057     0.5859016997    -0.0034070816
