19
    file 'w6s19.log' at: ---' #p HF gen pseudo=Read opt freq'---
Hg      0.3438046171    -0.0194838493     0.0542481594
O       1.5483941546    -0.6361017803    -1.8861675296
H       1.2992574705    -0.4454488347    -2.7790122958
H       2.2870249711    -1.2263243978     -1.925002816
O       -1.363798363     1.5265852371    -0.0058248855
H      -1.3147303658     2.4695915652     -0.032586301
H      -2.2802811911     1.2613584388    -0.0205181725
O       -3.798511317      0.056913218    -0.0548020251
H      -4.3713433064     0.1029434599    -0.8059599724
H      -4.3674722599     0.0402229672     0.7004839286
O         1.21510094    -1.2244230045     1.8735143195
H       0.7432528002     -1.867555701     2.3821585607
H       2.0676714369    -1.1213103481      2.270007075
O      -1.4205293708    -1.5429710438    -0.1250900047
H      -2.3252796036    -1.2421781763    -0.1186842665
H      -1.4065526913    -2.4507681479    -0.3865187365
O       1.9620129455     1.6792401179     0.4633765518
H        2.628063776     1.9551110018     -0.149262105
H       2.0380653568     2.2337782777     1.2261035157
