19
    file 'w6s18.log' at: ---' #p HF gen pseudo=Read opt freq'---
H       3.6992010079    -2.2929602302     0.4352617788
O       3.1669169741    -1.9656934335    -0.2721673423
H       3.5936791673    -2.2255592087    -1.0729095198
H       2.0657262602    -0.7093511091     -0.138540421
O        1.371904525    -0.0351879696    -0.0574517851
H       1.7333546397     0.8452821183    -0.0878986827
H      -1.8435838181    -1.4865110162     2.6303106995
O      -2.0270405808     -1.409846713     1.7043998784
H      -2.8273516924    -1.8841472842     1.5282846145
H       2.0514436926     3.2692277693     0.6540730939
O       1.6065979756      2.832758215    -0.0574101329
H       1.8713627895     3.2903249458    -0.8416801468
H      -0.3335166882     2.5328284653     0.1763273323
O      -1.0973744635     1.9680646567     0.2589729407
H      -1.8490445326     2.4938841627     0.4864620844
H      -2.7416406056    -0.7175973335    -2.0697401327
O      -2.1136737686    -1.2047386253    -1.5547896471
H      -1.9820096102    -2.0356158416    -1.9896202881
Hg     -0.7715912719    -0.3188615682     0.1362556759
