19
    file 'w6s2.log' at: ---' #p HF gen pseudo=Read opt freq'---
H       6.1817835546     0.6381726333    -0.0650023468
O       5.4605961379     0.4435425119    -0.6438943442
H       5.7744553956    -0.1443137507    -1.3130461798
H       1.2329059083     1.5755529054     1.2995619137
O       1.1593424748     1.1349685647     0.4673521918
H       2.5502212683     1.4987216849     -0.313446403
H      -2.6428380844     -3.963130873     0.6854725706
O      -2.6212100587    -3.1563021874     1.1751644001
H      -3.0276551996    -3.3324316854     2.0087718976
H      -3.1344841267    -0.3645887479    -0.2341690207
O      -2.3217125406    -0.8000415211     0.0843806027
H       -2.491196825    -1.6751671766     0.4808904094
H       3.3222395573     2.4436257597    -1.3935229818
O       3.4028936836     1.8477438296    -0.6603722299
H       4.2199735385     1.2500816234    -0.6785497034
H      -5.0873307779     0.8827613124    -0.2898775457
O      -4.4065524603      0.494374462    -0.8160294749
H      -4.7646197649     0.3771382027    -1.6816584139
Hg     -0.5664916808     0.1886324519     0.3093346583
