13
    file 'w4s1.log' at: ---' #p PBE1PBE gen pseudo=Read opt=(MaxCycle=150) freq geom=(nocrowd, newd'---
H       1.4043225302    -0.2731006168    -2.5443152309
O       1.5907677918    -0.2235072857    -1.5980736752
H       2.4272248607    -0.6792892757    -1.4392803872
H      -2.6186692184    -0.8704452715     0.5420368923
O      -2.1433240186    -0.3018178256    -0.0779885789
H      -2.6457206326    -0.2854127526     -0.903304728
H       1.2097829734    -1.9688756613     1.8292958966
O       1.2831259522    -1.0338007097      1.600323576
H       1.6256479903     -0.573773423     2.3773915641
H      -0.6106327657     2.7292323841     0.8803954414
O       0.1412477128     2.2191107657      0.554970733
H       0.7758255684       2.84424338     0.1833663602
Hg      0.0505487249     0.0133103713     0.0088726315
