13
    file 'w4s2.log' at: ---' #p PBE1PBE gen pseudo=Read opt=(MaxCycle=150) freq geom=(nocrowd, newd'---
H       3.8024317532     0.0872529246    -0.7954741091
O       3.2786377133    -0.1062863379    -0.0027476236
H       3.8036623708     0.0879501361      0.788993529
H      -1.2738713027     0.9171495518     0.0002732153
O      -0.7305268282    -0.0106341842     0.0001972086
H      -1.2862884151    -0.9328969122      0.001393098
H      -2.3747052045     2.4401052963     0.7780295021
O      -1.8983146243     2.1285495977     0.0001941475
H       -2.376063936     2.4392058748    -0.7771684266
H      -2.3988332298    -2.4433555334     0.7813095646
O      -1.9211901011     -2.135343609     0.0028248785
H      -2.3999214379    -2.4446475411    -0.7744784329
Hg      1.2265372422    -0.0270092635    -0.0012065516
