16
    file 'w5s10.log' at: ---' #p PBE1PBE gen pseudo=Read opt=(MaxCycle=150) freq geom=(nocrowd, newd'---
Hg     -0.3810826529    -0.5441972892    -0.2191678703
O       3.1841068221     0.8733311389     -0.516446099
H         3.70458221     1.2774215068     0.1894273769
H        3.726808089     0.9537041395    -1.3106762098
O      -1.6018325585     -0.774176854     1.7553304315
H       -2.085817877     -0.039177652     2.1515639616
H      -1.2871084222    -1.3185121921      2.487593639
O       0.5939911356     1.3809847992    -0.5128131377
H       1.5857231894      1.348698013    -0.5985519149
H       0.2335462729     2.0751091865    -1.0768108388
O       1.7086405145    -1.4108510686     0.0736756098
H       1.9820917062    -2.3250797597    -0.0591595933
H       2.4579079487    -0.8193079916    -0.1308428629
O      -1.8915256468    -1.9417849628    -1.0140789903
H      -2.1166290128    -2.0340886364    -1.9486203449
H      -2.6860907181    -2.1140763775    -0.4928641565
