16
    file 'w5s1.log' at: ---' #p PBE1PBE gen pseudo=Read opt=(MaxCycle=150) freq geom=(nocrowd, newd'---
H      -3.1107710879     1.7711842302    -0.5322406389
O      -2.9853812691     0.8153990762    -0.5041788076
H      -3.9103005304     0.2464640063    -0.3028362265
H        3.087773544    -1.7430120381    -0.4888435509
O       2.8873268737    -0.8054257764    -0.3906381274
H       3.7872346805     -0.201635799    -0.2719877351
H      -5.4218064187    -0.8735374325    -0.8913196604
O      -4.9776862535    -0.4978541874    -0.1228401047
H       -5.648561899    -0.2659215065     0.5285459595
H      -0.8503122326     0.2292341866     1.7103610149
O       -0.774979434     0.2189210583     0.7493993446
H      -2.1528360718     0.5697120018     0.0004203686
H       5.3010568235     0.8923972105    -0.9598644744
O        4.846113518     0.6018536115    -0.1611325084
H       5.5116932723     0.4505872637     0.5193085032
Hg      1.0415774849     -0.302674905     0.2360556435
