16
    file 'w5s3.log' at: ---' #p PBE1PBE gen pseudo=Read opt=(MaxCycle=150) freq geom=(nocrowd, newd'---
Hg      0.4034571167     -2.416494311     1.2723128831
O       1.8427777575    -3.4652840041     0.3769735294
H       2.0566522567    -3.6268738004    -0.7545156426
H       2.4673131973    -3.9148059003      0.957307119
O      -1.0455942377    -1.3611173849     2.0967141388
H      -0.8468398201    -0.4083765216     2.4792685395
H      -1.8872005045    -1.8432825932     2.4874759823
O       -3.036113565    -2.5673960187     2.9317819871
H      -3.2010622535    -2.7651132779     3.8593261478
H      -3.8931651414    -2.4291175638     2.5151904991
O      -0.5132175232      0.911901708     2.9116841217
H       -0.913360612     1.6803715933     2.4915066733
H      -0.3713731223      1.137126628     3.8367758765
O       2.2406378878    -3.7672237045    -1.9630998146
H       2.1095193283    -4.6439158151    -2.3464622177
H       3.0310572355    -3.3730750336    -2.3537808224
