16
    file 'w5s5.log' at: ---' #p PBE1PBE gen pseudo=Read opt=(MaxCycle=150) freq geom=(nocrowd, newd'---
Hg     -0.8280711105    -2.6996593819      0.768022667
O       0.7843705314    -3.7483982496     2.2989036683
H       1.2642977691    -4.5708231389     2.1577857222
H       1.0621259523    -3.4191311174     3.1597534983
O      -2.3344074745    -2.7138116065     2.1330924204
H      -2.7535144641    -3.6149594223     2.5876534707
H      -3.0123368891    -2.0356334242     2.0280552651
O      -3.2107687208    -4.7174137836     3.1829563419
H      -4.0029845143    -5.1597997994     2.8570152629
H      -3.2361359741     -4.745825532     4.1464820625
O       0.5057769628    -2.5732488976    -0.7608941049
H        0.135379347    -2.5692818434    -1.6515887249
H       1.4399591189    -2.0072366806    -0.7261305796
O       2.6071699821    -1.3666141308    -0.6470696466
H       3.4137342777    -1.8464208958    -0.8685874761
H       2.6993302061    -0.4687530961    -0.9860378474
