16
    file 'w5s6.log' at: ---' #p PBE1PBE gen pseudo=Read opt=(MaxCycle=150) freq geom=(nocrowd, newd'---
Hg      1.8451349143    -1.3633981582    -0.7139915073
O      -2.1775150686    -0.5053591732    -1.1077412358
H      -2.5575647761    -0.7554455427    -1.9578112156
H      -2.9224124295    -0.3449964245    -0.3266062065
O        -3.78337947     -0.070005789     0.6571408386
H      -4.5561142617    -0.6200244766     0.8239204553
H      -4.0298250072      0.846425854     0.8240269202
O       0.0628897658    -4.3769371986    -0.0172290719
H        -0.13057943    -4.7330951642     0.8547115847
H      -0.1103824861    -5.0904222887    -0.6382002574
O      -0.0333071851    -1.8399088546    -0.6279032759
H      -0.0848452813    -2.8107577861     -0.393319627
H      -1.3538878026     -1.052650686    -0.8902266765
O       3.8214212757    -0.7438188204    -0.8337911587
H       4.3850774395    -0.9914250885    -1.5806018838
H       4.3701798029    -0.6442394024    -0.0428266823
