16
    file 'w5s7.log' at: ---' #p PBE1PBE gen pseudo=Read opt=(MaxCycle=150) freq geom=(nocrowd, newd'---
Hg      0.6414560658     0.1770328142     0.4099139523
O      -0.7882575856     1.1369630162    -1.1801886567
H      -1.7434137199     1.0179543976     -1.119492628
H      -0.6427641486     1.9982513288    -1.5893779328
O       0.9321798202     -1.425802981    -1.1903730434
H       1.7087278702    -1.9948435606     -1.257625979
H       0.6495454206    -1.2223122883    -2.0906474077
O       4.3516988814     1.0720518014     1.6657082505
H       4.7732479684     0.7012611649      2.448633976
H       4.9351444443     1.7619055807     1.3302867223
O       1.9280283471     1.4256162705     1.4955509104
H       2.9704723763     1.2691225163     1.6096821095
H       1.5698268834     1.8941734019     2.2572589989
O       -1.152099143    -1.1279358197     0.9885185092
H      -1.5808214975    -1.1250297817      1.852939927
H      -1.2075925464     -2.028547978     0.6469299192
