  10
   W3S1Br
Br      -1.2836540000      0.0000040000     -0.0002290000
H        0.6201270000      1.4833470000      0.2485790000
O        1.5665090000      1.7116560000      0.1925740000
H        1.8233640000      1.1794550000     -0.5734490000
H        0.6194530000     -0.9561490000      1.1594500000
O        1.5656850000     -1.0225230000      1.3858040000
H        1.8229030000     -0.0929700000      1.3100620000
H        0.6210470000     -0.5260700000     -1.4093310000
O        1.5675760000     -0.6892100000     -1.5776040000
H        1.8228440000     -1.0871310000     -0.7334800000
