  10
   W3S2Br
Br      -1.1646970000     -0.2060330000      0.1048280000
H        0.1184140000      1.4982300000     -0.6960610000
O        0.7265730000      2.2633380000     -0.8032200000
H        0.3226590000      2.9143000000     -0.2253990000
H        1.9238930000      1.0737380000      0.4817120000
O        1.9723520000      0.3409870000      1.1104560000
H        1.0379400000      0.0662500000      1.1205940000
H        0.7063170000     -1.7094110000     -0.6882430000
O        1.6255290000     -2.0141030000     -0.7416360000
H        2.0595510000     -1.3537140000     -0.1863800000
