  10
   W3S3Br
Br      -1.4216780000      0.0000180000     -0.0000240000
H        2.5296090000      0.7469760000     -0.0978020000
O        3.1396330000     -0.0000030000     -0.0001160000
H        2.5296640000     -0.7469960000      0.0977910000
H        1.0085920000     -2.3200720000     -0.8307320000
O        1.0614790000     -2.0745260000      0.0954350000
H        0.2903570000     -1.4705730000      0.1851500000
H        0.2904200000      1.4706000000     -0.1851430000
O        1.0615810000      2.0744670000     -0.0952400000
H        1.0085450000      2.3199410000      0.8309410000
