  13
   W4S10Br
Br      -1.5589160000     -0.1468450000     -0.5650640000
H        1.2625320000      1.0398090000      0.7042550000
O        1.5829190000      0.2909570000      0.1790860000
H        0.7658220000      0.0489180000     -0.3016450000
H       -0.4520870000     -1.7748440000      0.9931750000
O        0.2834080000     -2.1366010000      1.5123180000
H        0.9633010000     -1.4760450000      1.3371420000
H        3.2425970000      0.2267430000     -0.5490450000
O        4.1539690000      0.0923730000     -0.8726700000
H        4.2942860000     -0.8443680000     -0.7296960000
H       -0.8259970000      1.4833020000      0.8421140000
O       -0.3072160000      2.1927800000      1.2834830000
H       -0.3930510000      2.9200020000      0.6632050000
