  13
   W4S11Br
Br      -2.0524980000     -0.1235920000     -0.2069920000
H        0.9148140000     -0.1659980000      1.1496760000
O        0.7977330000     -1.1175590000      1.0188520000
H       -0.1011170000     -1.1242630000      0.6304980000
H        0.0706700000      2.3652080000      1.0901290000
O        0.4361450000      1.7229490000      0.4790880000
H       -0.3628130000      1.2378210000      0.1519950000
H        2.1727260000     -1.4997910000      0.0023610000
O        3.0396040000     -1.5782470000     -0.4564890000
H        3.6272410000     -1.8897320000      0.2335550000
H        3.2289930000      0.4334400000     -0.5520070000
O        3.2244540000      1.3952600000     -0.4459500000
H        2.3034110000      1.5898130000     -0.2254930000
