  13
   W4S12Br
Br       1.8641760000     -0.3142910000     -0.0635640000
H        0.5341400000      1.4298260000     -0.4095450000
O       -0.0417580000      2.2322760000     -0.4036980000
H        0.3888670000      2.7792230000      0.2567800000
H       -2.2853520000     -1.3559660000     -0.3609170000
O       -3.0806840000     -1.2269190000     -0.9266040000
H       -3.7546930000     -1.7416810000     -0.4804120000
H       -2.8579720000      0.7030210000     -0.0935440000
O       -2.5297870000      1.3320470000      0.5620700000
H       -1.7114560000      1.6881510000      0.1676460000
H       -1.4070600000     -0.3357940000      1.1593350000
O       -1.0956380000     -1.2246440000      0.9352460000
H       -0.1697000000     -1.0686730000      0.6492710000
