  13
   W4S4Br
Br       1.5752060000      0.0420220000     -0.3299250000
H       -0.9706100000      0.2267030000      1.9334640000
O       -0.5333580000     -0.6037190000      2.1584380000
H        0.2831610000     -0.5278120000      1.6316780000
H       -0.6779160000      2.7182860000      0.4435890000
O       -0.9807050000      1.8093130000      0.4067030000
H       -0.1845800000      1.3152220000      0.0957360000
H       -0.3868660000     -1.4172180000     -0.7056690000
O       -1.2243430000     -1.8343550000     -0.4411290000
H       -1.2118350000     -1.6620000000      0.5119720000
H       -2.5329950000      0.9657970000     -0.5932180000
O       -3.1207370000      0.3047040000     -0.9808090000
H       -2.5774380000     -0.4972810000     -0.9158010000
