  16
   W5S19Br
Br       0.8418260000     -1.0362940000      0.5373170000
H       -1.1223890000     -0.0953010000     -0.3874560000
O       -1.8314180000      0.5713800000     -0.4729110000
H       -1.7943880000      0.9823920000      0.4051190000
H        0.0059770000      1.9539570000     -0.9274890000
O        0.8643940000      2.0618610000     -0.5004070000
H        1.0072960000      1.1594540000     -0.1490180000
H       -3.4437870000     -0.1624990000     -0.9350700000
O       -4.2897940000     -0.5971770000     -1.1545360000
H       -4.1739650000     -1.4813680000     -0.8042210000
H       -0.2469520000      0.6841790000      1.9313610000
O       -0.6998390000      1.5387620000      2.0406750000
H       -0.1530560000      2.1077480000      1.4839750000
H        2.4620680000     -0.3643370000     -1.3248360000
O        2.9009880000      0.2287460000     -1.9523830000
H        2.4406380000      1.0574980000     -1.7819550000
