  16
   W5S13Br
Br       1.0925260000     -1.0300790000     -0.3063980000
H       -1.4010670000     -0.1563940000      1.8713130000
O       -0.6697060000      0.3964700000      2.1741780000
H        0.0831270000     -0.0280770000      1.7285700000
H       -0.6604410000      1.6711610000      0.6259600000
O       -0.5124090000      1.9083510000     -0.3045330000
H       -0.0747840000      1.0996970000     -0.6239300000
H       -1.0896010000     -1.3563950000     -0.0068130000
O       -2.0385490000     -1.4214320000      0.2496730000
H       -2.2280090000     -2.3590390000      0.1827170000
H       -2.3941110000      1.4641460000     -0.8981320000
O       -3.2270390000      0.9830570000     -1.0103780000
H       -2.9945510000      0.1098380000     -0.6690530000
H        1.5976610000      2.4304270000     -0.0939980000
O        2.5129370000      2.1339340000     -0.0231540000
H        2.4014910000      1.1743500000     -0.0789910000
