  16
   W5S1Br
Br       1.5276670000      0.1867890000     -0.0139230000
H       -1.2868630000      2.0438750000     -0.6769250000
O       -0.9957820000      2.6309680000      0.0459100000
H       -0.0702960000      2.3620640000      0.1285790000
H        0.6510050000     -1.9029200000     -0.1795350000
O        0.1839830000     -2.7642740000     -0.1198920000
H        0.4166750000     -3.0662250000      0.7607850000
H       -1.3819470000      1.2497480000      1.4451010000
O       -1.2114150000      0.3959280000      1.8752850000
H       -0.3218640000      0.2049080000      1.5265560000
H       -0.3921500000      0.3760880000     -1.5446080000
O       -1.3081920000      0.5321570000     -1.8298080000
H       -1.7930940000     -0.1463870000     -1.3250160000
H       -2.0982260000     -0.8121700000      0.7221690000
O       -2.3671470000     -1.4011730000     -0.0070940000
H       -1.6031750000     -1.9954310000     -0.0849980000
