  16
   W5S29Br
Br      -2.3409540000     -0.3413240000     -0.0754270000
H        2.5683990000     -0.1163330000      1.2769640000
O        2.8503900000     -1.0330270000      1.3990500000
H        2.1354490000     -1.5000900000      0.9446190000
H        3.5562070000      0.7867190000     -0.8731680000
O        4.3544690000      0.2416260000     -0.8907690000
H        4.1575530000     -0.3945780000     -0.1919470000
H       -1.3146190000      1.6480740000      0.0987900000
O       -0.7818980000      2.4518390000      0.3000270000
H       -0.9097840000      2.5467500000      1.2464520000
H       -0.3541080000     -1.2272710000     -0.2063910000
O        0.5781100000     -1.5188440000     -0.3717160000
H        0.5352500000     -1.9150770000     -1.2445180000
H        1.2650640000      0.2729210000     -0.4066530000
O        1.6728170000      1.1260620000     -0.1829700000
H        0.9028550000      1.7039900000     -0.0331950000
