  16
   W5S23Br
Br       0.0005850000     -1.3410700000      0.3822180000
H       -3.4102350000     -1.0014340000     -0.2723540000
O       -2.8879080000     -0.6179960000     -0.9800860000
H       -1.9762270000     -0.8463250000     -0.7081970000
H        3.4107730000     -0.9990440000     -0.2708880000
O        2.8883510000     -0.6162030000     -0.9788840000
H        1.9766830000     -0.8448960000     -0.7069810000
H       -0.0005380000      0.8781590000      0.6619670000
O       -0.0013830000      1.8498700000      0.8174290000
H        0.0016430000      1.9127810000      1.7752550000
H        2.8673530000      1.3296080000     -0.5614180000
O        2.7652140000      2.2365590000     -0.2372470000
H        1.8555270000      2.2397970000      0.0903070000
H       -2.8685030000      1.3289510000     -0.5611890000
O       -2.7666810000      2.2355020000     -0.2359440000
H       -1.8576990000      2.2380000000      0.0937110000
