  16
   W5S25Br
Br      -1.7268260000     -0.0178100000     -0.2662440000
H        2.7332290000      0.7473690000      0.4150800000
O        2.4994830000      1.6434180000      0.1456760000
H        1.6790190000      1.8362830000      0.6386870000
H        0.9077380000     -2.1170660000      1.0340670000
O        0.0663650000     -2.4309420000      1.3887010000
H       -0.5679930000     -1.8157860000      0.9879640000
H        3.0252380000     -2.1012560000     -0.3955970000
O        2.5287450000     -1.3857130000      0.0038640000
H        1.9953330000     -1.0051510000     -0.7361950000
H       -0.3965210000      2.9415450000      0.9649820000
O        0.0093870000      2.1534210000      1.3322300000
H       -0.5379340000      1.4338850000      0.9389070000
H        1.5051780000      0.7960520000     -1.3968540000
O        1.1313510000      0.0103800000     -1.8266260000
H        0.2129820000     -0.0170410000     -1.4832620000
