  16
   W5S2Br
Br      -1.4562370000     -0.5088780000     -0.1565430000
H        0.3615970000      1.8939080000      1.6583890000
O       -0.3390180000      2.3266360000      1.1597100000
H       -0.8696880000      1.5660420000      0.8565320000
H        2.0041060000     -1.4637800000     -0.6644620000
O        1.5177730000     -2.2670710000     -0.4192890000
H        0.5956750000     -1.9728340000     -0.4838630000
H        2.2145430000      0.3473510000      0.3810790000
O        2.6449370000      0.4207390000     -0.4836340000
H        1.9881700000      0.9210230000     -1.0015660000
H        0.2358700000     -0.4396010000      1.4142090000
O        1.0916390000     -0.4209060000      1.8887890000
H        1.4767310000     -1.2500960000      1.5747920000
H        0.2848730000      2.3043550000     -0.8267510000
O        0.4398130000      1.7977070000     -1.6374060000
H       -0.1647310000      1.0475290000     -1.4947080000
