  16
   W5S20Br
Br       1.9611770000     -0.1016730000     -0.5118230000
H       -0.0041540000      2.8308840000      0.0192880000
O       -0.3782370000      1.9639430000      0.1880700000
H        0.3131690000      1.3464890000     -0.1493660000
H       -0.1544760000      0.8414710000      1.9685230000
O        0.2706000000      0.0611620000      2.3489540000
H        1.0215220000     -0.0485220000      1.7377270000
H       -3.7504610000     -1.7044940000      0.1181840000
O       -3.2052950000     -1.4106750000     -0.6131260000
H       -2.2874260000     -1.5660470000     -0.2939310000
H       -0.5736450000     -1.3116160000      1.2093900000
O       -0.7061730000     -1.8312510000      0.3992040000
H        0.0501870000     -1.5220530000     -0.1317650000
H       -2.2644920000      1.6769630000     -0.3264410000
O       -3.1988430000      1.5236010000     -0.5249200000
H       -3.2478180000      0.5612640000     -0.6232620000
