  16
   W5S24Br
Br       1.9470900000     -0.3727450000     -0.4080680000
H        0.6380060000     -0.1416210000      2.9743220000
O        0.1939900000      0.1477530000      2.1750290000
H        0.8483210000     -0.0401550000      1.4585580000
H        0.6965930000      1.7115110000     -0.2179540000
O        0.0604400000      2.3478850000      0.1558160000
H       -0.0596390000      1.9885680000      1.0430360000
H       -3.3388580000     -1.3549720000      0.0056590000
O       -4.1463060000     -0.8292370000      0.0235670000
H       -3.8136910000      0.0299090000     -0.2706050000
H       -1.0451940000     -0.9905720000      0.9047470000
O       -1.1666890000     -1.3762900000      0.0261870000
H       -0.2595610000     -1.3126890000     -0.3274100000
H       -1.5741100000      1.7140980000     -0.7268890000
O       -2.2424420000      1.1090540000     -1.0868870000
H       -1.8319640000      0.2487020000     -0.9107910000
