  16
   W5S30Br
Br       2.1025250000     -0.0011650000     -0.0000410000
H       -0.0880240000      1.9060520000      1.9350440000
O       -0.3005610000      1.8191040000      1.0036440000
H        0.4736480000      1.3202680000      0.6425760000
H       -0.0919360000     -1.9035680000     -1.9353630000
O       -0.3032000000     -1.8179970000     -1.0035430000
H        0.4718830000     -1.3203800000     -0.6426620000
H       -2.6909530000      1.9562170000     -0.7713710000
O       -2.4566150000      2.8925660000     -0.7466810000
H       -1.6430320000      2.8613970000     -0.2285050000
H       -1.6626180000     -0.5530450000     -0.5127380000
O       -2.2733460000      0.0012640000      0.0011680000
H       -1.6621670000      0.5551700000      0.5149440000
H       -2.6938230000     -1.9542610000      0.7715510000
O       -2.4605760000     -2.8908380000      0.7454910000
H       -1.6469630000     -2.8598850000      0.2273460000
