  16
   W5S5Br
Br      -0.8551630000     -1.1336220000     -0.2104700000
H       -0.5265640000      1.0259350000     -1.1578290000
O       -0.4707120000      1.9988290000     -1.1931690000
H       -1.1127920000      2.2320140000     -0.5090410000
H       -3.3241760000      1.3088380000      0.4608890000
O       -2.4930980000      1.4740450000      0.9110620000
H       -1.9965900000      0.6482650000      0.7378670000
H        2.4063610000      0.9611820000     -0.5793210000
O        2.2017240000      1.8256910000     -0.1907930000
H        1.3127830000      2.0185180000     -0.5373200000
H        2.5109300000     -0.9869090000      0.3038730000
O        2.4984340000     -1.0601640000     -0.6619520000
H        1.5515060000     -1.2178470000     -0.8111240000
H        1.7518600000      0.7377570000      1.4305690000
O        1.5871950000     -0.0691660000      1.9452030000
H        0.7690280000     -0.4048480000      1.5450970000
