  16
   W5S6Br
Br       1.3762730000     -0.1863110000     -0.7962770000
H        0.1854190000      1.2971750000      2.0673570000
O        0.3184490000      2.0597710000      1.4860390000
H        0.8390000000      1.6510650000      0.7751220000
H       -0.9487050000     -2.8319950000     -0.1026420000
O       -1.1019950000     -1.9567200000      0.2586860000
H       -0.3890170000     -1.4153410000     -0.1500950000
H       -2.8026960000     -0.9374840000     -0.1723110000
O       -3.4574920000     -0.2712980000     -0.4172170000
H       -2.8950650000      0.5025360000     -0.5832440000
H       -0.7186250000      1.1972750000     -1.1311630000
O       -1.4414880000      1.7676170000     -0.8265190000
H       -1.1066980000      2.0342950000      0.0434270000
H       -0.2167600000     -1.2363030000      2.0821710000
O        0.5342770000     -0.7366620000      2.4265430000
H        1.0695680000     -0.6420050000      1.6208250000
