  16
   W5S7Br
Br      -1.2514160000     -1.1577590000     -0.0229140000
H       -1.9176770000      1.2136670000      0.1771030000
O       -1.7074240000      2.1553970000      0.3013230000
H       -1.0410020000      2.0896280000      1.0031200000
H        1.3392350000      0.7535320000     -0.9691910000
O        1.7417830000      0.1649060000     -0.3055580000
H        1.0258310000     -0.4900750000     -0.1923420000
H       -0.2792430000      0.2474380000      1.8146310000
O        0.2735580000      0.9965300000      2.0941380000
H        0.9862970000      0.9356000000      1.4410390000
H        3.5171060000     -0.2730940000     -0.2434620000
O        4.4602880000     -0.4591520000     -0.0795970000
H        4.5223410000     -0.4248780000      0.8756900000
H       -0.5505410000      0.5211410000     -1.8338640000
O       -0.1646630000      1.3956410000     -2.0027610000
H       -0.6311290000      1.9220290000     -1.3310980000
