  16
   W5S8Br
Br      -0.8289450000     -1.0257660000      0.3856770000
H        1.0971370000     -1.5918100000     -0.6397340000
O        1.9272660000     -1.7043660000     -1.1527470000
H        1.6082980000     -1.7796810000     -2.0546270000
H       -2.6291600000      0.5479040000     -0.5605570000
O       -2.9750870000      1.3695530000     -0.9381420000
H       -2.1866000000      1.9240550000     -0.9309770000
H        2.6050830000      0.0439370000     -0.8044010000
O        2.7690430000      0.9761210000     -0.5812090000
H        1.9377530000      1.4051230000     -0.8338430000
H        1.9609780000      1.0578770000      1.2824340000
O        1.2724370000      1.1973110000      1.9511490000
H        0.6529310000      0.4741840000      1.7632840000
H        0.2554360000      2.2011570000      0.3106370000
O        0.0033380000      1.9826260000     -0.5981640000
H       -0.2647460000      1.0491060000     -0.4779960000
