  16
   W5S9Br
Br       0.1164800000      1.1159850000      0.4154920000
H        1.3296930000     -2.1463110000      0.3792790000
O        2.0109560000     -1.7025720000      0.9026130000
H        1.5805090000     -0.8532200000      1.0873460000
H       -0.1238110000     -1.0195110000     -0.6508840000
O       -0.4418450000     -1.9306670000     -0.7842090000
H       -1.1551280000     -1.9630620000     -0.1280960000
H       -1.7566620000      0.8173100000     -1.0896490000
O       -2.4707020000      0.3447890000     -1.5548660000
H       -2.0083970000     -0.4409080000     -1.8673200000
H        2.2874540000      0.6890280000     -0.9451040000
O        3.0634830000      0.1670870000     -1.1899950000
H        2.9694410000     -0.5910550000     -0.5981310000
H       -1.7483060000     -0.3660210000      1.2921690000
O       -2.4890120000     -0.9590690000      1.0881000000
H       -2.8346490000     -0.5422710000      0.2850070000
