  19
   W6S1Br
Br       0.0009660000     -1.4998320000     -0.4088420000
H       -0.0011220000      1.7471170000      1.1088730000
O       -0.0009200000      0.9961780000      1.7378170000
H       -0.0002710000      0.2320190000      1.1287910000
H        2.1833190000     -0.8318350000      0.9579850000
O        2.6742500000     -0.1016860000      1.3621160000
H        1.9519590000      0.4120770000      1.7561240000
H       -2.1835510000     -0.8341520000      0.9577430000
O       -2.6745390000     -0.1040010000      1.3617620000
H       -1.9521900000      0.4102180000      1.7551330000
H        0.7616570000      2.3085620000     -0.8072270000
O       -0.0014930000      2.7764850000     -0.4230980000
H       -0.7640050000      2.3076310000     -0.8073620000
H       -2.5298710000      0.8153860000     -0.4457370000
O       -2.0756390000      1.0034000000     -1.2819190000
H       -1.4636750000      0.2494330000     -1.3248720000
H        1.4635030000      0.2511490000     -1.3247090000
O        2.0747650000      1.0056830000     -1.2816620000
H        2.5290360000      0.8180450000     -0.4454260000
