  19
   W6S15Br
Br       0.6261790000     -1.5310360000     -0.0034850000
H        3.7301060000      0.1175890000      0.4647810000
O        3.2835710000      0.3080240000     -0.3629860000
H        2.5178690000     -0.3042610000     -0.3409330000
H       -1.6145440000     -0.4119810000      0.3143730000
O       -2.1373000000      0.4041890000      0.2513810000
H       -1.6717740000      0.8576870000     -0.4817650000
H        0.4553210000      0.2739030000      1.5623250000
O        0.1708040000      1.1142110000      1.9663380000
H       -0.7495330000      1.1486640000      1.6697840000
H        0.0157740000      0.3475710000     -1.5043980000
O       -0.3516760000      1.2226470000     -1.7123060000
H        0.2763410000      1.8173490000     -1.2593850000
H       -3.9447550000      0.2121110000      0.0746100000
O       -4.9031870000      0.0911690000     -0.0660840000
H       -4.9407860000     -0.3759680000     -0.9015270000
H        2.2367780000      1.9344470000     -0.2186580000
O        1.5249040000      2.5788050000     -0.0726100000
H        1.0759860000      2.2167780000      0.7128970000
