  19
   W6S11Br
Br      -2.0346630000      0.4559020000     -0.0644980000
H        3.9624090000      0.1777560000     -0.2218130000
O        4.9185710000      0.0736220000     -0.0569090000
H        4.9418990000     -0.4752220000      0.7278400000
H        1.1537270000     -0.3887890000      1.2463210000
O        0.4595710000     -0.6644110000      1.8682800000
H       -0.3299210000     -0.2384370000      1.4893690000
H       -0.4326790000     -0.5576250000     -1.5509710000
O        0.2991680000     -1.1493680000     -1.8034150000
H        0.1085940000     -1.9127160000     -1.2335920000
H       -0.2323870000     -2.2674220000      0.9933030000
O       -0.7663960000     -2.7658870000      0.3505220000
H       -1.4917890000     -2.1426330000      0.2015910000
H        0.4659930000      2.7031510000      0.9918120000
O        0.4608150000      2.5163150000      0.0499040000
H       -0.3546280000      1.9800470000     -0.0575610000
H        1.6002060000     -0.2502190000     -0.9249970000
O        2.1456190000      0.2751960000     -0.3022830000
H        1.6830080000      1.1317820000     -0.2526410000
