  19
   W6S14Br
Br      -0.3792930000     -1.2734790000      0.0344390000
H       -0.3695900000      0.9919700000     -0.4055820000
O       -0.5342160000      1.9564590000     -0.4149890000
H       -1.0942390000      2.0446720000      0.3705170000
H        2.9070810000     -0.5879950000      0.6522340000
O        2.5250050000     -0.3262160000      1.5025400000
H        1.6094950000     -0.6272690000      1.3864100000
H        2.5621190000      0.5085220000     -1.2230480000
O        2.6466380000     -0.4336310000     -1.4426610000
H        1.7574330000     -0.7752490000     -1.2647920000
H       -2.3903610000     -0.3366430000     -1.0580140000
O       -3.0089890000      0.3826040000     -1.2701180000
H       -2.3976530000      1.1127170000     -1.4260440000
H       -2.9685370000      0.8250520000      0.7568190000
O       -2.4682190000      0.9758380000      1.5724260000
H       -1.8366980000      0.2415310000      1.5354400000
H        1.3536450000      2.2593040000     -0.1671610000
O        2.3106740000      2.1232000000     -0.0745890000
H        2.3754130000      1.4891030000      0.6569600000
