  19
   W6S2Br
Br       1.7547970000     -0.2257170000     -0.0663620000
H       -1.7967590000     -0.5516340000      1.6043750000
O       -2.2857990000      0.2930220000      1.5606510000
H       -1.5814980000      0.9534170000      1.6362220000
H       -1.8126560000      0.9601050000     -1.4813250000
O       -2.5229570000      0.3270320000     -1.2822830000
H       -2.5643780000      0.3433570000     -0.3079470000
H       -0.9323020000     -2.2469810000      0.4802400000
O       -0.7085950000     -2.0479290000      1.4081700000
H        0.1413840000     -1.5960820000      1.2846250000
H        0.5643290000      2.3860380000      2.1165210000
O        0.0419190000      2.0295600000      1.3954060000
H        0.6142820000      1.3197470000      1.0169050000
H       -1.5190390000     -1.2267730000     -1.4737190000
O       -0.8971470000     -1.9786790000     -1.4194340000
H       -0.0456080000     -1.5394830000     -1.2711070000
H        0.4490460000      1.3451270000     -1.3795450000
O       -0.2112040000      2.0371340000     -1.5624660000
H       -0.2644300000      2.4721620000     -0.7029390000
