  19
   W6S24Br
Br       0.5059420000     -0.1098730000     -0.1148390000
H       -1.4949140000     -1.1738420000     -1.4154520000
O       -2.4574430000     -1.2789680000     -1.4123760000
H       -2.6175560000     -1.4375710000     -0.4657300000
H        2.6252150000      1.4850360000      0.0147110000
O        3.5846690000      1.5927090000      0.0415230000
H        3.8719090000      0.6725990000     -0.0147750000
H       -2.4069870000     -0.4841660000      1.6387790000
O       -2.2376240000     -1.4225520000      1.4456650000
H       -1.3031380000     -1.3835690000      1.1922000000
H        2.6042910000     -1.1183070000     -0.1567060000
O        3.5288360000     -1.4031770000     -0.0240010000
H        3.5311150000     -1.6703350000      0.8975900000
H       -1.1286580000      1.2060020000      1.4450430000
O       -2.0591780000      1.4358750000      1.5814290000
H       -2.3345350000      1.6210570000      0.6665520000
H       -1.3039460000      1.4475030000     -1.1892310000
O       -2.2589760000      1.5783690000     -1.2778300000
H       -2.5530250000      0.6630990000     -1.4288980000
