  19
   W6S29Br
Br       1.6068210000     -1.1187830000     -0.1117620000
H       -0.0932710000      2.0846180000     -0.6904970000
O       -0.2398620000      2.4533200000      0.2016050000
H        0.6213100000      2.3352210000      0.6388100000
H       -4.0591570000     -1.0770900000      0.5399630000
O       -3.9177590000     -0.9338330000      1.4789080000
H       -2.9913990000     -0.6457630000      1.4975230000
H        2.1380480000      0.7896150000      0.9605360000
O        2.1867280000      1.6281090000      1.4722470000
H        1.9670220000      1.3396750000      2.3610670000
H        0.6123760000      0.2910480000     -1.7214640000
O        0.0624410000      0.9496250000     -2.1878120000
H       -0.8128730000      0.5369750000     -2.1955550000
H       -0.9759670000      0.9069500000      0.7959370000
O       -1.2766490000     -0.0219790000      0.8941630000
H       -0.4573530000     -0.5254380000      0.7028670000
H       -2.1788440000     -0.0824790000     -0.6297750000
O       -2.6745680000     -0.0265770000     -1.4767210000
H       -3.1312780000      0.8147500000     -1.4068490000
