  19
   W6S23Br
Br      -1.6948290000      1.0665850000     -0.0560300000
H        1.6907090000     -0.0927890000      0.5804900000
O        1.9199000000     -0.8291200000      1.1701440000
H        1.0830310000     -0.9986410000      1.6390760000
H       -1.5748180000     -1.0416030000     -0.6077510000
O       -1.4468480000     -2.0139640000     -0.7383140000
H       -2.2005070000     -2.2757950000     -1.2706480000
H        0.5018420000      1.1265100000     -0.8664100000
O        1.4289260000      0.9217000000     -1.0941790000
H        1.3779820000      0.0377240000     -1.4943540000
H        1.6663700000     -1.8481230000     -0.5425620000
O        1.3347790000     -1.9549520000     -1.4482550000
H        0.3819850000     -2.0812710000     -1.3143420000
H        3.7411360000      0.6941700000      0.9055500000
O        3.9547400000      1.3896120000      0.2765690000
H        3.1607230000      1.4086250000     -0.2778350000
H       -1.0193390000     -1.9035880000      1.4368460000
O       -0.7441920000     -1.2541340000      2.0948560000
H       -1.0685340000     -0.4288210000      1.6864310000
