  19
   W6S21Br
Br      -0.4503850000      1.2128950000      0.0517680000
H       -0.0604040000     -1.0384670000     -0.6275340000
O        0.2058210000     -1.9673400000     -0.7423680000
H        1.1189800000     -1.9579860000     -0.4070060000
H        1.1510710000      0.6519470000      1.5660260000
O        1.9442010000      0.4290810000      2.0969440000
H        2.4090530000      1.2670320000      2.1460440000
H       -1.2219960000     -2.1808880000      0.6271810000
O       -1.9093000000     -1.8427840000      1.2232810000
H       -1.6044210000     -0.9382330000      1.3694190000
H        2.7866180000     -0.6685850000     -0.7107350000
O        2.9121450000     -1.2947840000      0.0201970000
H        2.6911880000     -0.7629680000      0.8031630000
H        1.2459610000      0.8079680000     -1.5618460000
O        1.8967040000      0.3667130000     -2.1396120000
H        1.3991070000     -0.3992870000     -2.4439610000
H       -2.8244310000      0.3543860000     -0.6755080000
O       -3.5626690000     -0.2681620000     -0.6821280000
H       -3.2224750000     -0.9680170000     -0.1076370000
