  19
   W6S34Br
Br       0.7184160000     -0.8858310000     -0.6608180000
H        2.9684320000     -0.5694960000      0.5862380000
O        3.7028690000     -0.0403340000      0.9273270000
H        3.4135690000      0.8499070000      0.7002320000
H       -3.5147960000      0.2677570000     -0.4502180000
O       -3.7592820000      1.1988980000     -0.5691590000
H       -2.9406470000      1.6499670000     -0.3307100000
H       -0.6532720000      0.9616050000     -0.1012170000
O       -0.9797350000      1.7789770000      0.3193490000
H       -0.1996810000      2.3434770000      0.2615670000
H       -1.8208340000     -1.4797960000     -0.4983170000
O       -2.6456720000     -1.4403290000      0.0054180000
H       -2.3130030000     -1.2183330000      0.8900770000
H        2.1981010000      2.3784430000     -1.2593010000
O        1.9239930000      2.0992820000     -0.3829590000
H        1.5916260000      1.1872150000     -0.5320920000
H       -0.3191760000     -0.7738850000      1.6603110000
O       -1.0443170000     -0.4761680000      2.2314200000
H       -1.1377370000      0.4446280000      1.9508860000
