  19
   W6S36Br
Br      -0.3286090000     -0.9885690000     -0.5110790000
H        0.5455240000      2.1212060000      0.8007020000
O        1.1021030000      1.9394330000      0.0336320000
H        0.8417610000      1.0227700000     -0.1813370000
H        3.0263990000      1.4516300000      0.5006480000
O        3.8470830000      0.9787070000      0.6926550000
H        3.5693660000      0.0525550000      0.6436260000
H        3.0684360000     -1.9640850000     -0.6026520000
O        2.7863660000     -1.7480800000      0.2887760000
H        1.8335520000     -1.5743740000      0.1708320000
H       -1.2044640000      0.6238990000      1.0770870000
O       -1.6459550000      1.4417700000      1.3621890000
H       -1.8519730000      1.8413890000      0.5032910000
H       -2.6748680000     -1.3091980000      0.5999670000
O       -3.4461610000     -1.0427280000      1.1179950000
H       -3.1954810000     -0.1533180000      1.3928150000
H       -1.3492170000      1.0977600000     -1.5386600000
O       -1.4612300000      2.0611290000     -1.5179850000
H       -0.5653740000      2.3478170000     -1.2966630000
