  19
   W6S32Br
Br       2.0649720000     -0.0000770000      0.1541330000
H       -3.4091310000     -0.7554340000     -0.3994390000
O       -3.9881150000      0.0000120000     -0.5787840000
H       -3.4091110000      0.7554630000     -0.3995560000
H       -1.2845420000     -2.2021650000     -0.3461480000
O       -2.0219760000     -2.0364830000      0.2631020000
H       -1.6341090000     -1.4222650000      0.9027300000
H        0.8625420000     -3.1605470000     -0.8586340000
O        0.4030430000     -2.4313340000     -1.2802210000
H        0.9011960000     -1.6531390000     -0.9584640000
H        0.2143310000      0.0000040000      1.3560230000
O       -0.6453630000      0.0001590000      1.8388740000
H       -0.3942000000      0.0001910000      2.7643140000
H        0.9015030000      1.6530790000     -0.9584950000
O        0.4033230000      2.4312720000     -1.2802300000
H        0.8627400000      3.1604860000     -0.8585570000
H       -1.6339510000      1.4224640000      0.9025950000
O       -2.0217860000      2.0366510000      0.2629130000
H       -1.2842880000      2.2023340000     -0.3462660000
