  19
   W6S35Br
Br       1.8453580000      0.1047010000     -0.5106800000
H       -1.3762460000      0.5730510000      1.6247560000
O       -2.0000570000      0.8725710000      0.9414160000
H       -1.7302970000      0.3362550000      0.1772590000
H        0.5531830000      2.2944290000     -0.2318880000
O       -0.1189460000      2.9603960000     -0.0332820000
H       -0.8447310000      2.4216170000      0.3123830000
H        0.8113210000      0.1314420000      1.7335780000
O        0.2090550000     -0.1934510000      2.4253300000
H        0.1364810000     -1.1259000000      2.1875450000
H       -0.9958110000     -1.6268010000     -0.7596540000
O       -1.2357350000     -0.8353760000     -1.2615800000
H       -0.3691580000     -0.3971700000     -1.3500560000
H        0.8990100000     -3.2923150000      0.4011610000
O        0.3720290000     -2.5024260000      0.5371980000
H        0.9446720000     -1.7721470000      0.2002460000
H       -3.8578210000      0.0881990000      0.0179000000
O       -4.1562670000     -0.3912850000     -0.7634700000
H       -3.3187540000     -0.5786160000     -1.2043260000
