  19
   W6S47Br
Br       0.0667290000     -1.0693600000     -0.6805340000
H       -1.2608230000     -1.5237280000      1.1889480000
O       -2.0027500000     -1.7176810000      1.7942300000
H       -2.2524120000     -2.6077300000      1.5372760000
H       -2.6786060000      2.0453360000      0.0385140000
O       -2.3083300000      2.9371650000      0.1257030000
H       -1.3581150000      2.7670260000      0.1540350000
H        2.4749730000      2.0221040000      0.5086100000
O        3.3874430000      1.8050460000      0.7430160000
H        3.3831250000      0.8371030000      0.7315690000
H        3.5709620000     -1.2901450000     -0.4039650000
O        3.1618930000     -1.1265980000      0.4484750000
H        2.2102640000     -1.1557070000      0.2320080000
H        0.6524260000      2.3970720000     -1.1273380000
O        0.5737610000      2.1163240000     -0.2122230000
H        0.4060910000      1.1543250000     -0.2941240000
H       -3.0240410000     -0.3576360000      0.5918910000
O       -3.0870520000      0.1429780000     -0.2334630000
H       -2.2590910000     -0.1182900000     -0.6646280000
