  19
   W6S45Br
Br      -0.2779150000     -1.4508570000     -0.0525260000
H        4.1713930000      0.5771620000     -2.4079580000
O        4.5413030000      0.8384630000     -1.5637960000
H        3.7848560000      0.7519990000     -0.9547150000
H       -3.2246840000      1.5314690000     -0.6124340000
O       -3.0720920000      2.4586270000     -0.3792980000
H       -2.1769190000      2.4340320000     -0.0154400000
H        1.5584200000      0.2565430000      2.2879290000
O        0.7182690000      0.1278510000      2.7440080000
H        0.2859920000     -0.5179110000      2.1596880000
H        1.6646010000      1.2944770000      0.1264070000
O        2.3141920000      0.5758200000      0.1335450000
H        1.7411320000     -0.1927650000     -0.0476000000
H       -0.4712420000      0.8909720000      0.2015580000
O       -0.3235860000      1.7934540000      0.5441530000
H       -0.1738260000      1.6023180000      1.4815140000
H       -2.3878550000     -0.7562220000     -0.7538970000
O       -3.1897420000     -0.3847400000     -1.1695710000
H       -2.9515830000     -0.3678700000     -2.0989780000
