  19
   W6S48Br
Br      -2.0197020000     -0.6521790000      0.1460250000
H        2.4478920000     -1.9777210000     -0.1436090000
O        3.2598740000     -1.9097510000      0.3808960000
H        3.1937770000     -1.0122780000      0.7382850000
H        2.5594260000      1.1139070000      0.1347880000
O        2.7577340000      0.9227280000      1.0599350000
H        1.8757070000      0.9397670000      1.4713970000
H       -0.5073330000      0.4590190000      1.6305400000
O        0.0609850000      1.1745440000      1.9718720000
H       -0.2053460000      1.9110540000      1.4115990000
H        0.0184060000     -1.4758010000     -0.8771690000
O        0.8847970000     -1.5706520000     -1.3080120000
H        1.1453210000     -0.6517980000     -1.4569420000
H       -1.6209600000      2.5670840000     -1.2505640000
O       -0.9225900000      2.1193800000     -0.7688950000
H       -1.3267620000      1.2408430000     -0.5268550000
H        1.7140870000      1.5518810000     -2.5378890000
O        1.5511730000      1.3242990000     -1.6216680000
H        0.6595600000      1.6759330000     -1.4174850000
