  19
   W6S44Br
Br       0.5543420000     -1.0097700000     -0.5566380000
H       -1.5967040000      0.1227330000     -0.3842040000
O       -2.3085750000      0.5250400000      0.1443540000
H       -2.1863010000      0.0663070000      0.9921780000
H       -0.5252540000     -1.1570780000      1.6356360000
O       -1.0467860000     -0.7992300000      2.3757680000
H       -0.5637230000      0.0109180000      2.5767100000
H       -0.6382530000      1.8701310000      0.9010830000
O        0.2682360000      1.7487990000      1.2105490000
H        0.5008140000      0.9087460000      0.7699280000
H        1.6851640000      2.2866460000     -0.3209220000
O        2.2129060000      1.9637150000     -1.0629260000
H        1.7589870000      1.1331960000     -1.2721720000
H       -4.9168530000     -0.4243690000     -1.3418830000
O       -4.8975860000      0.4490290000     -0.9488720000
H       -4.0009290000      0.5014420000     -0.5693470000
H        3.5600840000      0.6941820000     -0.0831450000
O        3.8330250000     -0.1378620000      0.3255680000
H        3.0312510000     -0.6668500000      0.2229330000
