  19
   W6S52Br
Br      -2.7842990000     -0.0291960000      0.0484000000
H        4.1516270000      1.4617370000      0.9109100000
O        4.0479110000      1.2485120000     -0.0183530000
H        4.0077140000      0.2687750000     -0.0305140000
H        0.4068440000      0.9330510000      1.2472890000
O        0.0249760000      0.2054190000      1.7676190000
H       -0.8903850000      0.1515950000      1.4278810000
H        2.1611900000      1.7074630000     -0.2643410000
O        1.2234550000      1.9478890000     -0.2113560000
H        0.7807280000      1.3704660000     -0.8530840000
H        4.0409510000     -2.0170030000     -0.7150730000
O        3.7746010000     -1.4721130000      0.0262750000
H        2.7854710000     -1.5854170000      0.0821090000
H        0.7203820000     -1.3636150000     -0.6323410000
O        1.1537320000     -1.7132130000      0.1620160000
H        0.7674850000     -1.1363260000      0.8597250000
H       -1.0582250000     -0.0426750000     -1.1844520000
O       -0.2126540000     -0.0525480000     -1.7158940000
H       -0.5194740000     -0.0377570000     -2.6245710000
