  19
   W6S50Br
Br       1.9142400000     -0.9573390000     -0.2600090000
H       -3.7152020000      0.6081260000     -1.1198970000
O       -4.5326120000      0.1181020000     -0.9595550000
H       -4.4239850000     -0.1222370000     -0.0304240000
H        2.7935020000      0.9608260000      1.1295700000
O        2.9074830000      1.8892440000      1.3827140000
H        2.2838060000      2.3192200000      0.7885980000
H       -0.1866370000     -1.3846020000      0.2888730000
O       -1.1637610000     -1.5025250000      0.3569690000
H       -1.3601040000     -2.1455600000     -0.3282310000
H       -1.5708180000      0.2356740000     -0.3119840000
O       -1.8487340000      1.1499850000     -0.4890330000
H       -1.0101420000      1.5965290000     -0.6891990000
H       -2.9243120000      0.7003350000      1.3918810000
O       -3.2951660000     -0.1051680000      1.7729630000
H       -2.6131740000     -0.7514360000      1.5420110000
H        1.1719490000      2.1700220000     -1.8214640000
O        0.8545910000      1.9820760000     -0.9355490000
H        1.1823090000      1.0662560000     -0.7674970000
