  19
   W6S6Br
Br       0.4634350000     -1.4350180000     -0.2599300000
H       -1.9559100000     -1.2912890000      0.0737550000
O       -2.8058240000     -0.9748320000      0.4272510000
H       -2.5411710000     -0.6589430000      1.2982780000
H       -1.6904810000      1.8037970000     -0.9416510000
O       -2.3761920000      1.8669400000     -0.2494200000
H       -2.7310920000      0.9660980000     -0.2138590000
H       -0.3822680000      0.1468800000      1.2337240000
O       -0.7086250000      0.8549030000      1.8208950000
H       -1.2329490000      1.4024010000      1.2075460000
H       -0.2452660000      0.3829880000     -1.7302940000
O       -0.3042930000      1.2972110000     -2.0564460000
H        0.5601520000      1.6383700000     -1.7770090000
H        2.3860300000      1.4883590000     -0.0067930000
O        2.3691300000      1.3008090000     -0.9584470000
H        2.0367430000      0.3892150000     -0.9553970000
H        2.0803680000      0.0776360000      1.6150210000
O        2.1165060000      0.9915020000      1.9232310000
H        1.1699900000      1.1878650000      2.0377250000
