  19
   W6S7Br
Br       1.3224620000     -1.1776340000     -0.1478040000
H       -1.4439940000      1.3066800000      0.3581440000
O       -1.7717940000      1.2740550000      1.2735220000
H       -1.7851840000      0.3123640000      1.4342590000
H        1.5417980000      2.2383420000     -0.0168820000
O        1.7342970000      2.2266780000     -0.9735620000
H        2.0266520000      1.3114700000     -1.0833750000
H       -0.8316330000     -1.6057280000      0.7539780000
O       -1.7566050000     -1.5586970000      1.0604170000
H       -2.2627140000     -1.4420500000      0.2447350000
H       -0.2075060000      0.1714150000     -1.1129570000
O       -0.7620770000      0.9294170000     -1.4016150000
H       -0.0844410000      1.6214790000     -1.4848110000
H        0.1172950000      1.5972250000      1.7728040000
O        1.0868650000      1.5912950000      1.7171830000
H        1.2643020000      0.6953230000      1.3789530000
H       -2.5408070000      0.2328270000     -1.4471890000
O       -3.3513690000     -0.1638290000     -1.0893970000
H       -3.5144890000      0.3864880000     -0.3168980000
