7
    file 'w2s1.log' at: ---' #p PBE1PBE gen pseudo=Read opt freq'---
Hg     -0.0000712698    -0.0126021121    -0.0007687965
O       2.0344272113    -0.0656781277     0.0560496869
H       2.5558605085     0.6204900657     0.5096524442
H       2.5585037479    -0.4606950212    -0.6637365254
O      -2.0345161792    -0.0605631245    -0.0622454778
H      -2.5562113383      0.663835428    -0.4515253651
H      -2.5586936804    -0.5202201081     0.6179930337
