10
    file 'w3s1.log' at: ---' #p PBE1PBE gen pseudo=Read opt freq'---
Hg     -0.7794574444    -0.2781970596     0.0003218003
O       1.3668831425     2.6093136153     -0.000006874
H       1.6493014126     3.1063578794     0.7762995593
H       1.6491123316     3.1064046599    -0.7763522044
O       1.1518742589     0.1491210225    -0.0000052537
H        2.244505245    -0.7529772558     0.0000786575
H       1.2705387474     1.2015398082    -0.0000278994
O       3.0386708089    -1.4571575363     -0.000022943
H       3.5904051439    -1.4623634094    -0.7995116041
H       3.5906663538    -1.4623137243     0.7992847616
