10
    file 'w3s2.log' at: ---' #p PBE1PBE gen pseudo=Read opt freq'---
Hg      0.0888534455    -0.0000111077     0.0014189699
O      -1.8038629179    -0.9682038088     0.0764299244
H      -1.9272287079    -1.9238036631    -0.0286727441
H       -2.600049486    -0.5090093349    -0.2299300241
O        2.188572224     0.0635573936     -0.078734471
H       2.7294974516    -0.7398884762    -0.0255275077
H       2.6984580143     0.8105866001     0.2708886202
O      -1.0788990914     1.9786072972      -0.02209033
H       -1.042648883     2.6167277316    -0.7478831203
H      -1.3152150492     2.4724753681     0.7751766829
