13
    file 'w4s1.log' at: ---' #p PBE1PBE gen pseudo=Read opt freq'---
H       1.4042372345    -0.2730177929    -2.5443023074
O       1.5907933628    -0.2233908339    -1.5980851003
H       2.4272965533    -0.6791179719    -1.4393822258
H      -2.6187160516    -0.8702088971     0.5422754244
O      -2.1433179289    -0.3017948933    -0.0779039372
H      -2.6456034937     -0.285733405    -0.9032931243
H       1.2098552196    -1.9691979015     1.8290990277
O       1.2831320025      -1.03403889     1.6004496896
H       1.6255474078    -0.5742445722     2.3777027017
H       -0.610812436     2.7295276699     0.8798836307
O        0.141150071     2.2193213729     0.5547820064
H       0.7759265136     2.8443662539     0.1833706583
Hg      0.0506590146     0.0134039403     0.0090940514
