13
    file 'w4s3.log' at: ---' #p PBE1PBE gen pseudo=Read opt freq'---
H       4.5332455598     1.2997925646    -0.4239319109
O       4.1052890628       0.69166991     0.1921503432
H       4.7824642512       0.25067521     0.7200603681
H      -0.2398924036    -0.8565552425     1.4889885246
O      -0.2704779993    -0.5001130497     0.5918639822
H       1.3589958222    -0.4781769729    -0.1744670954
H      -4.4703860971     1.2760322745    -0.0379753544
O      -4.0292249926     0.4971931681    -0.4079358329
H      -4.6958320505    -0.1713569436    -0.6243585115
H       3.1634974878     0.0443284782      -0.22319119
O       2.2153767416    -0.5079271586    -0.6552640456
H       2.3647811335    -1.3858279642     -1.024404997
Hg      -2.116765516    -0.0368752739     0.1722257194
