16
    file 'w5s10.log' at: ---' #p PBE1PBE gen pseudo=Read opt freq'---
Hg     -0.3808051729     -0.545963966    -0.2186868335
O       3.1838145144     0.8734630849    -0.5160498145
H       3.7039260426     1.2774012619     0.1901712338
H        3.726283382     0.9549812521    -1.3103166738
O      -1.6019643909    -0.7717702659     1.7559051248
H      -2.0857315386    -0.0362169108     2.1513726782
H      -1.2881303128     -1.315910939     2.4886929143
O       0.5936850726     1.3799782139    -0.5115239741
H       1.5854595704     1.3482290498    -0.5972253505
H       0.2331052452     2.0745588617    -1.0748820138
O       1.7093361449    -1.4121180138     0.0713684511
H       1.9837892277    -2.3260517234    -0.0614330384
H       2.4581038676    -0.8197459972    -0.1326264865
O      -1.8913741239    -1.9430015775    -1.0142334188
H      -2.1154492824     -2.035373569    -1.9490214307
H      -2.6867372458    -2.1144627616    -0.4939523674
