16
    file 'w5s4.log' at: ---' #p PBE1PBE gen pseudo=Read opt freq'---
Hg     -0.1954101212     0.9080761123     1.7914918103
O       1.6991559557     0.5440480779     1.1980826596
H        2.269057026     1.0086302382     0.3872768764
H       2.0049060325    -0.3405370248     1.4326208095
O      -2.0676394607     1.4863601133     2.2621664054
H      -2.5502730957     2.4692867358     2.0646044733
H      -2.5282890679     0.9683954229      2.931360043
O       0.1760243222    -1.3361978479     2.9142440868
H       0.4547541697    -1.4678338828     3.8274200484
H      -0.2116203736    -2.1750984202      2.640823433
O      -3.0848498588     3.6123946146     1.7676496412
H      -3.8532533614     3.6280909351     1.1845628593
H       -3.217344029     4.2746995681     2.4561626852
O       2.9442347711     1.6467813497    -0.5584108001
H       3.7484485282     2.1213698756    -0.3181015441
H       3.0872605629     1.2402511323    -1.4206114873
