16
    file 'w5s7.log' at: ---' #p PBE1PBE gen pseudo=Read opt freq'---
Hg      0.6418140056     0.1769091398     0.4090888575
O      -0.7882223183     1.1368587811    -1.1806362883
H      -1.7433189401     1.0176617622    -1.1193674074
H      -0.6431385139     1.9980047807    -1.5902765071
O       0.9318490516    -1.4260129046    -1.1909678957
H       1.7087960298    -1.9944887954    -1.2584381778
H       0.6485208054    -1.2231321294    -2.0911670558
O       4.3523099202     1.0730199612     1.6660888569
H       4.7744095922     0.7015426843     2.4483842431
H       4.9353150558     1.7634642638     1.3311363483
O       1.9282073914     1.4245438099     1.4962474913
H       2.9706727937     1.2688265657     1.6101605069
H       1.5697907213     1.8922247132     2.2583879229
O      -1.1523617523    -1.1275585468     0.9883463526
H      -1.5810809065    -1.1233939568     1.8527608306
H      -1.2081834993    -2.0286102457       0.64796955
