16
    file 'w5s9.log' at: ---' #p PBE1PBE gen pseudo=Read opt freq'---
Hg      0.5028204257    -0.1977600305     0.0487311145
O      -2.9486852732    -2.0435638837    -0.1328742633
H      -3.4568176648    -2.4009540944     0.6033737251
H      -3.4521518944    -2.2088150668    -0.9368129911
O      -1.5061140859    -0.0955523299     0.2420570249
H       -1.889958492     0.8191898446     0.1030382752
H        -2.15732823    -0.9068759244     0.0470313233
O       2.5479382151    -0.6793789462    -0.0425748695
H       2.8965325164    -1.4549132754     0.4208127698
H       3.0453169183    -0.5648709992    -0.8652811541
O       0.7032837109     2.1602102479    -0.1228726348
H      -0.1248955757     2.6619389638    -0.0976623593
H       1.4275163215      2.765220454     0.0685357013
O      -2.1769285906     2.4140986211    -0.0350830554
H       -2.613878936     2.8297877296     0.7181938304
H      -2.6440323656     2.7406496895    -0.8133994372
