19
    file 'w6s11.log' at: ---' #p PBE1PBE gen pseudo=Read opt freq'---
Hg      0.3289916258    -0.0301904523    -0.9248206757
O       0.9777354462     -0.358503191     1.4034653153
H       0.4107094922    -0.9118784215      1.957836259
H       1.8115477361    -0.2382853942     1.8675468091
O      -1.3497341579    -1.9953662182     1.9115762153
H      -1.2605956809    -2.9364805334      2.102010997
H       -2.041982254    -1.6768380747      2.502029534
O      -3.1739373393    -1.2893615112    -2.1322071582
H      -3.3713124016    -2.0725009402    -2.6558330129
H       -4.009566103    -0.8410341928    -1.9699499909
O       1.8370115333     1.1907301704    -1.5427695035
H       2.1685656653     1.2755090058    -2.5628659693
H       1.9573221793      2.017923971    -1.0630372436
O       -1.212812556    -1.2984423192    -0.6058445969
H      -2.0633196746     -1.289049871    -1.1990314256
H      -1.3707788917    -1.5776955576     0.3418556463
O       2.6112488654      1.285684584    -3.8505638873
H       3.5228313756      1.033438107    -4.0356541858
H       2.3776881398     1.9970558393    -4.4567681265
