19
    file 'w6s18.log' at: ---' #p PBE1PBE gen pseudo=Read opt freq'---
H       3.8554857372    -1.7101777507     0.7066735962
O       3.2077382576    -1.7330947161    -0.0040845826
H       3.6459097923    -2.1257998297    -0.7656888278
H       2.1448016127    -0.7261590454    -0.1961631697
O       1.3512883445    -0.0967700085    -0.3805877455
H        1.598670421     0.8609442951    -0.3376984734
H      -2.0290632419    -1.8378423159     2.3429825925
O      -2.1593777857    -1.3427534379     1.5239472875
H      -2.8469212583    -1.7770492509     1.0010988352
H       2.1782958827     3.0208549206     0.3282652124
O       1.5897630791      2.568466057    -0.2870481454
H        1.721800873     3.0105886628     -1.134058833
H      -0.2770299334     2.3989830087      0.277435166
O      -1.0359819744      1.816132375     0.4447521881
H       -1.665792728     2.2897127196     0.9971447344
H      -2.7818590586     -0.371362553    -1.7150836762
O       -2.251624003    -1.0634663642    -1.3032286755
H       -2.123791352    -1.7349313619    -1.9832223739
Hg     -0.5489526648    -0.4999754047     0.3527048908
