19
    file 'w6s12.log' at: ---' #p PBE1PBE gen pseudo=Read opt freq'---
H      -3.6477780648     2.6414569133    -0.8023391551
O      -3.1275344936     2.4457537863    -0.0170481861
H      -3.6028898301     2.8118865939     0.7355654632
H       2.4987299268     2.1340264403    -0.2253635505
O       2.2878432885     1.1952516117    -0.2778107639
H       3.1419715829      0.590729836    -0.0531284688
H       -2.052021346    -0.4307994603     0.1507528644
O      -1.6526903226     0.4729697388     0.2915894117
H      -2.3042586155     1.2649453045      0.131515014
H      -0.4384444167    -2.2407336393     -0.131326283
O       0.4039051208    -1.7643987194    -0.1601996697
H        1.102644948    -2.4071392746    -0.3104113775
H        4.712769267    -0.1878033174     0.9896451685
O       4.2188429009    -0.2340736603     0.1633863429
H       4.8603558649    -0.3463405418    -0.5474420188
H      -2.8483055587    -2.4230016534     0.7916095575
O      -2.4381259601    -2.0170906215     0.0189590947
H      -2.9535657749    -2.3211026167    -0.7368677334
Hg      0.3419934833     0.6547632796    -0.0116837101
