19
    file 'w6s21.log' at: ---' #p PBE1PBE gen pseudo=Read opt freq'---
Hg      0.0886694446     0.0756916927     0.0806736598
O      -1.0962584445     1.8208907494     -1.017152168
H      -1.7139164564     1.7316726267    -1.7510663154
H       -1.413896649     2.5537128399    -0.4781328479
O      -1.8241101104    -1.2337358689       0.61069294
H      -2.6104325584    -0.9471884427     1.0878462059
H      -2.1180418409    -1.8803864024    -0.0403833338
O       0.1291418773     1.7222818981     1.7953856489
H      -0.2273196025     1.6424775745     2.6868180307
H       0.9121185372     2.2800067239     1.8612774085
O       0.2805795354     -1.603161655    -1.5924673672
H       0.8576642419    -2.3528282865    -1.4096956969
H       0.2915767462    -1.4741170821     -2.547088101
O       1.1243461674    -1.6435660273     1.3562634705
H       0.5539888223    -2.2163215883      1.880758708
H       1.9670615764    -1.5952780682     1.8205648015
O       1.9224809639     1.3904059294    -0.6712963681
H       2.8281887734     1.0958180919     -0.816190235
H       1.7449493063     2.0684754044    -1.3324722405
