19
    file 'w6s6.log' at: ---' #p PBE1PBE gen pseudo=Read opt freq'---
Hg     -0.5642679735    -0.1030097114     -0.146130932
O       1.2315465521     3.0560869599     0.1397936086
H       1.6071582778     3.5547171956    -0.5909513722
H        1.229028447      3.652738763     0.8933180092
O       -2.419753908    -0.7553567997    -0.6102271967
H      -3.2851750878    -0.6565978206     0.0149912445
H      -2.6551183363    -0.8355186069    -1.5409065541
O       1.2440717251     0.4403744592     0.3288454683
H       1.3136871056     1.4321234376     0.2730352147
H        2.418847981    -0.3229086449     0.7009876097
O      -4.3421244093     -0.569706244     0.8775233732
H      -5.0264035592     0.0989369821     0.7663137703
H      -4.7703528103      -1.37630832     1.1846237666
O       3.2246733549    -0.9134068999     0.9924328052
H       4.0944411716    -0.9090057197       0.38633873
H       3.4281818754    -0.8182260426     1.9295439693
O       5.2016550583    -0.9800222014    -0.4632914709
H       5.9568664184    -0.3885715672    -0.3888720972
H       5.5325441173     -1.837125219    -0.7505189465
