19
    file 'w6s9.log' at: ---' #p PBE1PBE gen pseudo=Read opt freq'---
Hg      0.3234152195     0.1099856597    -0.1952332284
O       4.1515607007     1.1101322197    -0.1293034597
H       4.5961848613     1.8074745573    -0.6255598335
H       4.8511818276     0.5676297234     0.2526120056
O      -5.5828820661     0.9904297172    -0.4183716844
H       -6.009152177     1.2535603525    -1.2407999017
H      -6.2489338322     1.0065772285     0.2763858895
O      -3.7535690069    -0.6192990286    -0.5238566975
H      -4.0057682593    -1.5294810449    -0.3305968431
H      -4.5752030036     0.0703415988    -0.4439002192
O       1.5943186947     1.6575012868     1.3070318024
H       1.2650077177     2.3049637308     1.9369309605
H       2.5480520495     1.7853577732     1.2512830524
O       2.1100356006     0.0791329916    -1.2287571587
H       2.9663395643     0.4441968364    -0.8072325167
H       2.3050571078    -0.6579238547    -1.8178069313
O      -1.5267074717    -0.0077653763     0.5127425617
H       -1.520165467     0.0873426294      1.470503468
H      -2.8673020598    -0.3638570006    -0.0784712657
