7
    file 'w2s1.log' at: ---' #p PBE1PBE gen pseudo=Read opt=(MaxCycle=150) freq geom=(nocrowd, newd'---
Hg     -0.0001022512     0.0142211378     0.0000369224
O       2.1319931663    -0.0274547811     0.0172485568
H       2.6894401237     0.5849326376     0.5243063073
H       2.6768644658     -0.475745051    -0.6499547967
O      -2.1321639304    -0.0252881289     -0.021049591
H      -2.6898253636     0.6394027805    -0.4570011969
H      -2.6769072106    -0.5455015947      0.591832798
