13
    file 'w4s1.log' at: ---' #p PBE1PBE gen pseudo=Read opt=(MaxCycle=150) freq geom=(nocrowd, newd'---
H       1.1347695172    -0.6412031268    -2.5911098585
O       1.4642766628    -0.3775926572    -1.7234570449
H       2.4277115902    -0.4064065899    -1.7640931884
H      -2.4450448377    -1.2209166227     0.1849082714
O      -1.9908347459     -0.473085517    -0.2216988544
H      -2.6405158891    -0.0027680385     -0.757799828
H        1.387851499    -1.9508692679     1.8571766692
O       1.0991826303    -1.0303597658      1.862045683
H        1.304066437    -0.6724136648     2.7342763504
H      -0.4082462034     2.8513932159     1.1002188593
O       0.1934941866     2.3720588869     0.5181224234
H       0.7718533801      3.025343319     0.1062901949
Hg      0.1915832423     0.1226939079     0.1088108177
