13
    file 'w4s3.log' at: ---' #p PBE1PBE gen pseudo=Read opt=(MaxCycle=150) freq geom=(nocrowd, newd'---
H       4.5109035563     1.3248462255    -0.3881905942
O       4.0731689148     0.7033016236     0.2052632878
H       4.7418263997     0.3003735453     0.7708530461
H      -0.0708184124    -0.8779535022     1.4588339268
O      -0.1328841095    -0.5303238909     0.5608683168
H       1.3423550544    -0.5186384994    -0.1811089244
H      -4.5293216813     1.3234633502    -0.0788305774
O      -4.0945211415     0.5042273206    -0.3514097111
H      -4.7733590345    -0.1205125822    -0.6403015941
H       3.0955020104     0.0082709397    -0.2488052845
O       2.2071259052    -0.5323693348    -0.6789544489
H       2.4006085657    -1.4153034232    -1.0151203505
Hg     -2.0695150273    -0.0465227721     0.1806629074
