16
    file 'w5s1.log' at: ---' #p PBE1PBE gen pseudo=Read opt=(MaxCycle=150) freq geom=(nocrowd, newd'---
H      -3.1747174949     1.7735285784    -0.5444350968
O      -3.0306863385     0.8205388169    -0.5150800657
H      -3.9337991306     0.2590966828    -0.3040460658
H       3.1880180706    -1.7600385513    -0.5328715495
O       2.9663952892    -0.8362616206    -0.3752921732
H         3.84071967     -0.251878704     -0.273892419
H      -5.4811923823    -0.8925897039    -0.8586803137
O      -5.0268518887    -0.5053937939    -0.1026822657
H      -5.6897532497     -0.286745199     0.5605684356
H      -0.9698074419     0.2873905268      1.681291595
O      -0.8747980201     0.2532806031     0.7232193376
H      -2.1854905117      0.582392777     0.0023514215
H       5.4065751771     0.9058840746    -0.9449433005
O       4.9506290888     0.5964475095    -0.1549572454
H       5.6188655095     0.4574112472     0.5244046854
Hg      1.0260346531    -0.2973722437     0.2332540203
