16
    file 'w5s6.log' at: ---' #p PBE1PBE gen pseudo=Read opt=(MaxCycle=150) freq geom=(nocrowd, newd'---
Hg      1.0948108745    -2.3809790991    -0.5097952315
O       -2.478417514    -0.1371124499    -1.1192014136
H      -2.8204308271     -0.171367663    -2.0199264673
H      -3.2312516774     0.1244649744    -0.4060302382
O      -4.1380100326     0.5136013953     0.5560929474
H      -5.0346751853      0.165892061     0.5950706132
H      -4.1686107114     1.4322128393     0.8430174058
O       2.3121440372    -4.3779396293    -0.0822893303
H       2.3941660874    -4.7821553442     0.7896107619
H       2.4060186044    -5.0963028745    -0.7190858068
O      -0.9492166917    -2.0646969744    -0.6354563896
H      -1.4237503539    -2.8847949971    -0.4660751708
H      -1.8676918161    -0.9444079939     -0.905126778
O       3.1908428546    -1.6036034872    -0.6054150921
H       3.5024927435    -0.7101741876     -0.789360716
H       3.9564696078    -2.1786955696    -0.4964780941
