16
    file 'w5s7.log' at: ---' #p PBE1PBE gen pseudo=Read opt=(MaxCycle=150) freq geom=(nocrowd, newd'---
Hg       0.516646787     0.2001101964     0.2110844186
O      -1.0008166583     1.3245386608    -1.1421431676
H      -1.9551690231     1.1903040959    -1.1191777391
H      -0.8459627499     2.1445582503    -1.6248387511
O       1.1595100013    -1.3473447972    -1.3802432891
H       1.9331839597    -1.9215042061     -1.345056282
H       0.8713308045    -1.3219468101    -2.2999697035
O       4.3088625756     0.8830961336     1.8031618754
H        4.629986187     0.5899007226     2.6620746365
H       5.0002455453      1.436589419     1.4257607766
O       1.8911000443     1.3871898458     1.4260556261
H       2.8926581676     1.2088276466     1.6025528113
H       1.6201816453     2.1905964392     1.8800029275
O       -1.043348089    -1.2049005533     1.1958302488
H      -1.4009648779    -1.1292127866     2.0879668128
H      -1.2320648827     -2.100942374     0.8946564267
