15
Configuration: s1.com
 H                  0.76874506   -1.80604314    0.03930600
 O                 -0.06059800   -2.30725318   -0.10012501
 H                  0.12769101   -2.87149322   -0.85309806
 H                  1.96575915    0.16451501    0.05096700
 O                  2.18118217   -0.77966706    0.19528301
 H                  2.74122921   -0.78317206    0.97423507
 H                 -1.48276211   -1.27930910   -0.08171601
 O                 -2.23449817   -0.65330505   -0.04283900
 H                 -2.86695522   -1.07568908    0.54167304
 H                 -1.74109913    2.38247218    0.77398006
 O                 -1.29611410    1.92701314    0.05658900
 H                 -1.70139313    1.03698608    0.03817600
 H                  1.63293112    2.30935517   -0.96067107
 O                  1.42292611    1.81542314   -0.16530501
 H                  0.45266703    1.90468715   -0.07168001
