15
Configuration: s2.com
 O                  1.72994813    1.47787511    0.28846702
 H                  2.01782515    1.83655514    1.13051509
 H                  1.97884015    0.53152404    0.32311702
 O                  2.02495315   -1.22974309    0.32145602
 H                  1.14669109   -1.48542411   -0.03053300
 H                  2.64986620   -1.79754614   -0.13398801
 O                 -2.52107119   -0.25389802    0.77448706
 H                 -2.76814321    0.00835300    1.66305713
 H                 -2.05819116    0.51421104    0.40507703
 O                 -0.80021306    1.40746111   -0.71457405
 H                  0.09403601    1.55143112   -0.33985803
 H                 -0.95610008    2.16168717   -1.28740710
 O                 -0.47248404   -1.54034312   -0.72923606
 H                 -0.58705504   -0.68160405   -1.15655609
 H                 -1.20683709   -1.52999511   -0.09822501
