  10
      file 'w3s2.out' was gotten at: ---' ZORA-SR PBE/QZ4P'---
Hg       0.1174460000      0.0530980000      0.0167090000
O       -1.7990710000     -0.9569280000      0.2111640000
H       -1.8671730000     -1.9155540000      0.0127600000
H       -2.5644250000     -0.5075770000     -0.2068360000
O        2.2498590000      0.0964240000     -0.1389380000
H        2.7387000000     -0.7437080000      0.0044370000
H        2.7381540000      0.8080500000      0.3299070000
O       -1.2312240000      1.9531760000     -0.0872200000
H       -1.1020310000      2.6019090000     -0.8089780000
H       -1.3923220000      2.4780700000      0.7234970000
