  19
      file 'w6s13.log' was gotten at: ---'ZORA-SR PBE QZ4P'---
Hg      -0.1807690000     -0.2043380000      0.1172000000
O        3.0964280000     -1.9093110000     -1.4082900000
H        3.6068620000     -2.6580980000     -1.0508750000
H        3.6454860000     -1.5122090000     -2.1074790000
O       -0.4727480000     -0.4709070000      2.5906110000
H        0.1133880000     -1.0280630000      3.1319320000
H       -1.3387350000     -0.5014040000      3.0336230000
O       -3.3042970000     -1.9393130000     -1.5615230000
H       -3.5347530000     -1.8406040000     -2.5032350000
H       -4.0663370000     -2.3690380000     -1.1308470000
O        0.8756650000      2.0617440000      0.8228700000
H        0.9325590000      2.8844720000      0.3045880000
H        0.7471900000      2.3506860000      1.7443110000
O        1.8800220000     -0.5468860000      0.2752940000
H        2.4304410000     -1.0872680000     -0.4756450000
H        2.2861710000      0.3281820000      0.4450860000
O       -2.2333800000     -0.1197160000     -0.2819690000
H       -2.7133500000     -0.8889150000     -0.8892920000
H       -2.5428930000      0.7602920000     -0.5669100000
