  13
   W4S3I
I       -1.0466240000     -0.4882100000      0.0110210000
H        1.2451030000     -1.6621860000     -0.6840930000
O        2.2078660000     -1.6950540000     -0.8205960000
H        2.3717100000     -0.8263820000     -1.2089440000
H        0.9552400000      0.9116670000     -0.8919800000
O        1.8252920000      1.3489800000     -0.8681530000
H        2.1110510000      1.1234680000      0.0321610000
H        2.3646780000     -0.8115040000      1.0416360000
O        2.1351160000     -0.0940810000      1.6510550000
H        1.1661100000     -0.1124710000      1.6003560000
H       -0.8838150000      2.3313270000      0.1168180000
O       -0.4530060000      3.1898590000      0.0030230000
H        0.4188550000      2.9235810000     -0.3126770000
