  13
   W4S8I
I        1.4629050000     -0.3135800000     -0.0085400000
H        0.1489340000      1.9478080000     -0.2648120000
O       -0.6508630000      2.5040350000     -0.2337510000
H       -1.0391480000      2.2165000000      0.6030110000
H       -1.5747800000      1.0094720000     -1.2344250000
O       -1.7672240000      0.0616460000     -1.3223810000
H       -0.8828540000     -0.3240830000     -1.1797260000
H       -3.6858040000     -1.1605400000      0.7938350000
O       -4.0419480000     -1.2139920000     -0.0964460000
H       -3.3328520000     -0.8260630000     -0.6329900000
H       -0.6873820000      0.0637260000      1.6431980000
O       -1.6189240000      0.3376460000      1.6524000000
H       -1.8484020000      0.1782130000      0.7259780000
