  16
   W5S23I
I       -1.6178050000     -0.8360410000      0.0184120000
H        3.3028250000     -0.9750840000     -1.5606250000
O        3.6292080000     -0.1925690000     -1.1129930000
H        2.8127670000      0.2421650000     -0.7786890000
H       -1.2640080000      1.3683930000      1.4081410000
O       -0.8366470000      2.2161420000      1.6270480000
H        0.0936230000      1.9895900000      1.5108640000
H        0.8564650000      1.5420300000     -0.7133270000
O        1.3475470000      0.9230420000     -0.1448700000
H        0.6720200000      0.2266850000     -0.0154810000
H       -0.9715470000      2.6581290000     -0.3767930000
O       -0.8161490000      2.3964400000     -1.2974200000
H       -1.2268980000      1.5160580000     -1.3066870000
H        5.0926560000     -0.7713970000      1.6221680000
O        5.6062640000     -0.7142900000      0.8153790000
H        4.9339480000     -0.5164990000      0.1374310000
