  16
   W5S4I
I        1.6619270000     -0.1260200000     -0.0446780000
H       -1.7366160000     -1.2272050000     -1.2598180000
O       -1.2809660000     -1.8747300000     -0.6948550000
H       -0.3899630000     -1.4910280000     -0.5721790000
H       -1.6049620000      0.5290940000      1.8021940000
O       -0.9950610000      1.2816640000      1.8703720000
H       -0.1486330000      0.8985870000      1.5798100000
H       -2.8641620000     -1.6141820000      2.0333450000
O       -2.7424220000     -0.9570720000      1.3466370000
H       -2.1620740000     -1.3951470000      0.6728260000
H       -0.1844850000      1.5903240000     -0.9690070000
O       -1.0180400000      2.0780090000     -0.8563490000
H       -1.1216900000      2.0205740000      0.1113750000
H       -3.3698950000      0.1075090000     -0.6700160000
O       -2.9861190000      0.2597130000     -1.5396080000
H       -2.3187820000      0.9598510000     -1.3701960000
