  19
   W6S17I
I       -1.9598690000     -0.5208380000      0.0337840000
H        2.3110700000      1.8443770000      0.5573680000
O        1.7062210000      2.4635210000      0.9936930000
H        1.2546560000      1.8694270000      1.6091540000
H        2.1514700000     -0.3057640000      0.7598300000
O        2.7368980000     -0.0949770000      0.0160060000
H        2.1325060000     -0.1213800000     -0.7607210000
H        0.6155350000      0.9067290000     -1.9196170000
O        0.9059690000     -0.0198360000     -2.0204530000
H        0.1463060000     -0.4854510000     -1.6332120000
H       -0.0929680000     -0.1809780000      1.4878450000
O        0.7023690000     -0.0347280000      2.0539610000
H        0.5160100000     -0.5487230000      2.8424440000
H        0.3803400000      2.5677300000     -0.3959040000
O       -0.2192530000      2.4245760000     -1.1488280000
H       -0.8935470000      1.8262920000     -0.7885770000
H        4.2166200000     -1.1572520000     -0.1265910000
O        4.9790820000     -1.7596720000     -0.2215320000
H        4.6447870000     -2.4416680000     -0.8053680000
