  19
   W6S13I
I       -1.0735860000     -0.9244080000     -0.1805350000
H       -1.3652960000      1.6802490000     -0.8679710000
O       -1.0690980000      2.6025150000     -0.8277280000
H       -0.9606520000      2.7158420000      0.1287350000
H        2.8425230000     -1.1439120000      0.0499420000
O        2.5062260000     -1.9064310000      0.5518990000
H        1.5826060000     -1.9565450000      0.2710240000
H        2.6876890000      0.9375710000      0.3260050000
O        3.1832510000      0.7100800000     -0.4735100000
H        2.5380030000      0.9101470000     -1.1774470000
H        0.4982090000      1.8720900000     -1.8374910000
O        1.0226960000      1.1527630000     -2.2251080000
H        0.5321370000      0.3769830000     -1.9107080000
H        0.6965320000      0.1725790000      1.2245490000
O        1.3825630000      0.5103930000      1.8339060000
H        1.8951570000     -0.2951830000      1.9855290000
H       -0.1909030000      1.7546490000      2.3280200000
O       -1.0791970000      2.0260090000      2.0614210000
H       -1.4274800000      1.2064870000      1.6811200000
