  19
   W6S32I
I       -2.6021570000     -0.0612740000     -0.0516580000
H        3.7542420000     -0.8442370000     -1.1703890000
O        3.4612360000     -1.7474350000     -0.9656270000
H        2.4953440000     -1.6911230000     -1.0089430000
H        1.9157980000      1.6911780000      0.8440560000
O        2.8292260000      1.5013300000      1.1108000000
H        2.7900270000      0.5949560000      1.4751210000
H        5.1123850000      1.2633690000     -1.0100210000
O        4.1996740000      1.0230340000     -1.1751110000
H        3.7264800000      1.2666090000     -0.3443540000
H        1.8030900000     -1.3200140000      1.3931110000
O        2.6971320000     -1.2313620000      1.7595940000
H        3.2215790000     -1.5276060000      0.9970450000
H       -0.2570680000     -1.2326190000     -0.2772760000
O        0.7094530000     -1.1073070000     -0.2833700000
H        0.7553580000     -0.1401150000     -0.3386620000
H        0.1468130000      2.1875180000     -0.9263720000
O        0.2404980000      1.7665250000     -0.0682820000
H       -0.6474780000      1.3613300000      0.0805440000
