  19
   W6S7I
I       -1.3994350000     -0.7274830000     -0.1626180000
H        0.0679480000      0.4054980000      1.7544570000
O        0.9020960000      0.6409240000      2.1928790000
H        1.4217830000     -0.1631500000      2.0104110000
H        0.4463890000      2.8396660000      0.0917540000
O        1.3796030000      2.6082450000      0.2277150000
H        1.3323420000      1.9780470000      0.9726790000
H       -1.5135600000      1.7842360000     -0.2845720000
O       -1.4782080000      2.7513190000     -0.1419870000
H       -1.9377260000      2.8538920000      0.6947050000
H        1.5015900000      1.3899980000     -1.1209520000
O        1.5010430000      0.6340680000     -1.7440070000
H        0.6823490000      0.1690740000     -1.5028940000
H        2.8360800000     -0.3338870000     -1.2686010000
O        3.5659160000     -0.8855270000     -0.8947910000
H        4.1423070000     -0.2429480000     -0.4769290000
H        0.9773870000     -1.8061270000      0.7530530000
O        1.8481870000     -1.8369870000      1.1775040000
H        2.4640830000     -1.6140240000      0.4571630000
