  7
   W2S1At
At      -0.6178360000     -0.0122950000      0.0005650000
H        2.5596200000      1.6839350000      0.8575520000
O        2.5843590000      1.5066230000     -0.0859620000
H        1.6709140000      1.1889460000     -0.2430720000
H        3.0424620000     -0.5464640000     -0.0875440000
O        2.8373410000     -1.4853740000      0.0095090000
H        1.8694400000     -1.4512950000      0.0366730000
