  10
   W3S2At
At      -0.7783640000     -0.0371680000      0.0304160000
H        1.7748370000     -0.0418930000      1.2165020000
O        2.7278220000      0.1277990000      1.1441140000
H        2.7283200000      0.8673360000      0.5185250000
H        2.6844300000     -1.5051850000     -0.1162640000
O        2.2872750000     -2.1682700000     -0.6979110000
H        1.3724510000     -1.8568480000     -0.7325840000
H        1.1174420000      1.5553620000     -0.7664740000
O        1.8574820000      2.1965690000     -0.7593860000
H        1.5028250000      2.8917020000     -0.1996380000
