  10
   W3S5At
At       1.0155970000     -0.2010930000      0.0076140000
H       -1.7259950000     -0.3425490000     -0.1385830000
O       -2.6036050000      0.0652110000     -0.2293990000
H       -2.3786500000      1.0069890000     -0.2022830000
H       -4.2296850000     -0.5983930000      0.1451410000
O       -5.1395110000     -0.9486310000      0.2112210000
H       -5.3178870000     -1.2381900000     -0.6840620000
H       -0.4421660000      1.9182880000     -0.1779880000
O       -1.1511250000      2.5824780000     -0.0428980000
H       -1.0774140000      2.7542780000      0.8991700000
