  13
   W4S8At
At      -1.1308780000     -0.1829840000     -0.0048650000
H        2.2647350000      0.1222120000      0.6799120000
O        2.1020330000      0.2751510000      1.6224520000
H        1.1603780000      0.0467460000      1.6708120000
H        1.6110960000      2.2029350000      0.6356040000
O        1.2353830000      2.5417090000     -0.1879030000
H        0.3930160000      2.0533170000     -0.2210930000
H        2.0413800000      1.0189900000     -1.2333400000
O        2.1913870000      0.0650220000     -1.3397890000
H        1.2888630000     -0.2842040000     -1.2225340000
H        3.7357260000     -0.9075740000     -0.6520580000
O        4.4179100000     -1.3170630000     -0.0984570000
H        4.0557510000     -1.2173500000      0.7858310000
