  16
   W5S1At
At      -1.1125310000     -0.0095470000      0.0164380000
H        1.0490950000     -0.5803980000      1.6839420000
O        1.9348860000     -0.9393050000      1.8524140000
H        1.9657730000     -1.6602080000      1.1990110000
H        0.3570320000      2.1272660000      0.1301030000
O        1.0113510000      2.8431530000      0.0069090000
H        0.9976610000      2.9677920000     -0.9456100000
H        2.5768830000      0.1981450000     -1.1786640000
O        2.0564370000     -0.2749310000     -1.8577170000
H        1.1432680000     -0.0931440000     -1.5831820000
H        2.5943950000      1.7532150000      0.3292680000
O        3.2626290000      1.0492150000      0.3287940000
H        2.9018820000      0.3929690000      0.9543290000
H        0.6199120000     -2.4063540000     -0.3125070000
O        1.5458120000     -2.6671880000     -0.4122790000
H        1.8703070000     -1.9753670000     -1.0188630000
