  16
   W5S14At
At       1.0687800000     -0.3236810000     -0.1055820000
H       -1.2326580000      1.1216120000     -0.7530370000
O       -2.0146850000      1.6344960000     -0.4913030000
H       -2.0966690000      1.3819620000      0.4457320000
H        0.8352660000      2.5901440000      0.0487740000
O        0.3573650000      3.4291050000      0.0181500000
H       -0.5424260000      3.1289450000     -0.1639710000
H       -1.7757340000     -2.8876740000      0.5884170000
O       -1.9789010000     -1.9640480000      0.4258590000
H       -1.1120780000     -1.5778020000      0.1726610000
H       -0.8369970000      0.3995670000      1.8932360000
O       -1.7819770000      0.4359390000      2.1081160000
H       -2.0831670000     -0.4295590000      1.7979290000
H       -3.4220760000     -1.1119820000     -0.7505160000
O       -3.9729560000     -0.4661910000     -1.2096310000
H       -3.4505080000      0.3432570000     -1.1142690000
