  16
   W5S16At
At       1.2734820000     -0.2707690000      0.0202900000
H       -1.6938740000     -2.1405800000     -1.1241140000
O       -1.8380280000     -1.8016160000     -0.2366700000
H       -0.9436300000     -1.4814740000      0.0136320000
H       -0.0381800000      1.8015880000     -1.2682940000
O       -0.6864470000      2.5249890000     -1.2939750000
H       -0.7083630000      2.7788530000     -0.3582260000
H       -1.8102260000      1.6924230000      1.1959990000
O       -1.0488920000      2.1492180000      1.5846320000
H       -0.3345520000      1.5069910000      1.4452690000
H       -4.5777520000     -0.4156470000      0.0258380000
O       -4.7566330000     -1.3338610000      0.2571630000
H       -3.8658200000     -1.7031360000      0.2812480000
H       -2.2551180000      1.4517640000     -0.9066350000
O       -2.8663390000      0.8989420000     -0.3893440000
H       -2.4477830000      0.0232440000     -0.4038430000
