  16
   W5S19At
At       1.3065340000     -0.1504890000     -0.0899840000
H       -2.7231770000      1.6857050000     -1.2554410000
O       -2.8762970000      2.5841390000     -0.9285650000
H       -2.2717960000      2.6273760000     -0.1776700000
H       -3.4021990000     -2.1406740000     -0.7148310000
O       -3.6982450000     -2.5405120000      0.1092040000
H       -3.1934190000     -2.0415360000      0.7641990000
H       -1.2062080000     -0.2482270000     -1.5178330000
O       -2.1624240000     -0.2471670000     -1.3618170000
H       -2.1861250000     -0.3549060000     -0.3972640000
H       -1.8397670000      0.2592230000      1.7352960000
O       -1.8561390000     -0.6815530000      1.5079830000
H       -0.9278590000     -0.8386150000      1.2549470000
H       -0.2698080000      1.5753630000      0.8635590000
O       -0.9751780000      2.0874580000      1.3190660000
H       -0.4887550000      2.6489020000      1.9266970000
