  16
   W5S20At
At       1.4488180000     -0.4858590000     -0.0086760000
H       -5.8030620000     -0.6184370000      0.0496940000
O       -6.7679760000     -0.5275870000     -0.0502500000
H       -6.8919140000     -0.5662490000     -0.9991820000
H       -1.6109720000      1.2989690000      0.5266730000
O       -1.8675670000      0.7371370000     -0.2265030000
H       -1.0629740000      0.1903310000     -0.3253920000
H        0.2767170000      1.5283360000      1.5631410000
O       -0.3107860000      2.3015980000      1.5826910000
H       -0.0422670000      2.7556830000      0.7688030000
H       -3.6337090000     -1.6292450000      0.6060400000
O       -4.0022510000     -0.9178140000      0.0806100000
H       -3.2558030000     -0.2871730000     -0.0244270000
H        0.8408270000      1.9294680000     -1.0998330000
O        0.2760500000      2.7073740000     -1.2558540000
H       -0.5861440000      2.2906330000     -1.3735960000
