  19
   W6S17At
At      -1.5969670000     -0.1810210000     -0.0024020000
H        2.2461890000      0.2613090000     -1.4162250000
O        2.5904320000      1.0813170000     -1.0328400000
H        2.3556890000      0.9648380000     -0.0974030000
H        2.6613760000     -0.7180070000      1.6183570000
O        3.0812850000     -1.4971810000      1.2309410000
H        2.5186260000     -1.6801200000      0.4637750000
H        1.1699180000      1.8133700000      1.3908280000
O        1.3902650000      0.9006710000      1.6331580000
H        0.5671040000      0.4419450000      1.3776830000
H       -0.3192010000      2.2770380000     -0.2715020000
O        0.4073390000      2.9199160000     -0.2344570000
H        1.0802380000      2.4996900000     -0.7892830000
H        4.5616450000      0.3737260000     -0.7132210000
O        5.2176080000     -0.2108290000     -0.3134240000
H        4.6625140000     -0.7380540000      0.2807100000
H        0.5013210000     -1.2042690000     -0.8626350000
O        1.3829560000     -1.5258150000     -1.1608670000
H        1.1776530000     -2.2493100000     -1.7570060000
