  19
   W6S13At
At      -0.8917460000     -0.6440290000      0.0328650000
H        3.1086060000      0.6416950000      0.0204280000
O        3.2893360000      1.0702950000     -0.8285170000
H        2.5287000000      1.6675750000     -0.9247230000
H        0.2274670000      1.1340150000      1.8625660000
O        0.9419090000      1.7208750000      2.1608170000
H        1.7021790000      1.1274230000      2.1667910000
H        0.8998820000      2.4987420000      0.3361090000
O        0.7833530000      2.4560300000     -0.6284480000
H        0.3398030000      1.5922450000     -0.7157610000
H        1.4927550000     -0.8558520000      1.1449190000
O        2.4539310000     -0.8282530000      1.3061520000
H        2.7655770000     -1.3663100000      0.5620590000
H        2.7673750000     -0.6862130000     -1.5590490000
O        2.4773870000     -1.6121930000     -1.5112550000
H        1.5228880000     -1.5284570000     -1.3753210000
H       -1.2560730000      3.0587960000     -0.8546400000
O       -2.2050610000      2.8824790000     -0.8527890000
H       -2.2275950000      1.9449320000     -0.6246220000
