  19
   W6S10At
At      -1.6404630000     -0.0455140000     -0.0978630000
H        0.2814590000     -0.8825660000      1.6373870000
O        1.1176950000     -0.8314000000      2.1320100000
H        1.2974980000      0.1170670000      2.0964730000
H        0.1514540000      1.4801560000      0.7364200000
O        0.9108140000      1.9694970000      1.1295590000
H        0.5087510000      2.7705780000      1.4727030000
H        2.3750500000     -1.6386550000      0.9966830000
O        2.9677090000     -1.9548840000      0.2908670000
H        3.7013310000     -1.3194560000      0.2968900000
H        1.9768810000     -1.2743990000     -1.1368900000
O        1.5437910000     -0.7169750000     -1.8128580000
H        0.6343390000     -0.6183980000     -1.4863970000
H        2.3370720000      0.8224360000     -1.3783960000
O        2.8299290000      1.5723880000     -0.9781020000
H        2.2350270000      1.8680870000     -0.2720330000
H        4.1899940000      0.7528330000     -0.3157800000
O        4.9131050000      0.1802200000      0.0372180000
H        5.4861150000      0.0402400000     -0.7182510000
