  19
   W6S12At
At      -0.5324720000     -0.9062030000     -0.0112970000
H       -2.2891410000      2.2381440000     -0.7952740000
O       -1.7205230000      2.2823680000     -1.5799620000
H       -1.4005240000      1.3705630000     -1.6348890000
H       -0.2103550000      2.7365200000     -0.2896080000
O        0.2532220000      2.5214190000      0.5362570000
H        0.1749220000      1.5481500000      0.5361880000
H        2.1740290000      2.3920630000      0.3829420000
O        3.0811180000      2.0594100000      0.2861670000
H        3.0955690000      1.2763500000      0.8584240000
H       -2.3374540000      0.9536390000      1.0374560000
O       -2.6296860000      1.8690390000      1.1744100000
H       -1.7911030000      2.3086350000      1.3672130000
H        1.8546970000     -0.3174760000     -1.4649730000
O        2.7911840000     -0.1126570000     -1.6000130000
H        2.8882570000      0.7592000000     -1.1806190000
H        2.0147570000     -0.8502610000      1.2950240000
O        2.9694610000     -0.6953800000      1.2518710000
H        3.1282800000     -0.7818440000      0.2984830000
