  19
   W6S14At
At       1.6279400000     -0.0382940000     -0.0827200000
H       -4.4532400000      0.7517680000     -0.2724460000
O       -5.0763050000      0.0612160000     -0.0034170000
H       -4.4942000000     -0.7076980000      0.0964960000
H       -1.1017060000     -0.6910610000     -2.7566830000
O       -1.3726490000     -0.4958060000     -1.8569990000
H       -0.5237130000     -0.3881150000     -1.3771650000
H       -2.2998040000      1.9590760000     -0.1127760000
O       -2.8712800000      1.8155370000     -0.8807700000
H       -2.4184550000      1.0982410000     -1.3477200000
H       -1.3782370000     -0.0725080000      2.1071530000
O       -1.1812820000     -1.0182020000      2.0938090000
H       -0.3326220000     -1.0336480000      1.6237240000
H       -0.1828820000      1.4270210000      0.9022880000
O       -0.9603680000      1.8512660000      1.3253520000
H       -0.5902780000      2.6152170000      1.7729960000
H       -2.4262970000     -1.7559660000      0.8466170000
O       -2.9958690000     -2.0019850000      0.0978680000
H       -2.5114250000     -1.6435840000     -0.6580270000
