  19
   W6S19At
At      -1.7336290000     -0.1476570000     -0.0149880000
H        4.4834940000     -1.2671980000      0.1621410000
O        4.3487110000     -2.1469940000     -0.2182680000
H        3.4075350000     -2.1339570000     -0.4287280000
H        1.8947170000      1.8462390000     -0.9929330000
O        2.6177690000      1.3904230000     -1.4971310000
H        2.7208570000      1.8767550000     -2.3160120000
H        1.1146170000      1.7538590000      0.8667320000
O        0.7781420000      2.3337360000      0.1608770000
H       -0.0692600000      1.8894210000     -0.0387710000
H        0.6286140000     -0.0390880000      1.9811820000
O        1.5610710000      0.0769220000      1.7548640000
H        1.6287030000     -0.4565520000      0.9360670000
H        1.8993160000     -0.3926310000     -1.2481870000
O        1.5941500000     -1.1719900000     -0.7568010000
H        0.6214550000     -1.0868960000     -0.7568190000
H        3.8733940000      0.9822810000     -0.0280080000
O        4.2988580000      0.6447340000      0.7741390000
H        3.5653900000      0.5639300000      1.3958620000
