  19
   W6S15At
At      -1.4982420000     -0.2239780000     -0.1039190000
H        1.8665630000      2.1792820000      1.3042010000
O        2.4132300000      2.6319080000      0.6453330000
H        2.9011200000      1.9018880000      0.2318670000
H        2.4228990000      0.7281730000     -1.4899990000
O        3.1099000000      0.2994220000     -0.9494960000
H        2.5951900000     -0.2917030000     -0.3731560000
H        1.2336150000      2.4109470000     -1.0011980000
O        0.9402680000      1.9433100000     -1.7988980000
H        0.1888120000      1.4159780000     -1.4813060000
H        3.4491950000     -2.3805740000      0.1518940000
O        4.2764100000     -2.4366270000     -0.3420510000
H        4.2616240000     -1.6098730000     -0.8368600000
H        0.8291650000     -1.4056740000      0.4620190000
O        1.7241700000     -1.4472120000      0.8473660000
H        1.6393030000     -0.8454550000      1.5997750000
H        0.0314660000      0.6827170000      1.6443960000
O        0.7436540000      0.9075420000      2.2870410000
H        0.2705680000      1.0656460000      3.1071140000
