  19
   W6S23At
At       0.6985950000     -0.8071470000     -0.1495500000
H        2.7002800000      2.4399350000      0.3368420000
O        3.3507180000      1.8578330000      0.7465930000
H        2.9157180000      0.9983320000      0.6815290000
H       -2.4164040000     -0.0781290000      1.8808520000
O       -2.6545110000     -0.9440000000      1.5253930000
H       -1.8357980000     -1.2080450000      1.0795140000
H        0.2139100000      2.8633080000      0.2614860000
O        0.7279430000      2.7803090000     -0.5531170000
H        0.8428870000      1.8143780000     -0.6100470000
H       -0.5766290000      1.0619030000      1.3681690000
O       -1.2609090000      1.7388570000      1.5055270000
H       -1.7226800000      1.7127150000      0.6524940000
H       -1.3010060000      0.6250080000     -1.2592550000
O       -1.8707060000      1.4075340000     -1.3670070000
H       -1.2269340000      2.1067840000     -1.5356010000
H       -3.9412290000     -0.3208860000      0.1536690000
O       -4.4499820000      0.1493250000     -0.5238590000
H       -3.7731070000      0.6733230000     -0.9661740000
