  19
   W6S36At
At       1.6374980000     -0.4055570000     -0.0011380000
H        1.6189250000      2.4017970000      0.4782270000
O        1.2676620000      3.3044050000      0.4858940000
H        0.3564780000      3.1609320000      0.2137220000
H       -4.1129830000      0.2973910000      1.4115420000
O       -4.1338490000     -0.6148740000      1.7373540000
H       -3.2635410000     -0.9414500000      1.4648230000
H       -0.2660310000      1.0729240000     -0.5193500000
O       -1.0740640000      1.5661250000     -0.8052400000
H       -0.9252490000      1.6807420000     -1.7484590000
H       -2.9901990000      1.7386630000     -0.3050650000
O       -3.9377410000      1.6164110000     -0.1543490000
H       -4.1651490000      0.8514040000     -0.7049010000
H       -1.7962980000     -0.2832940000     -0.3077350000
O       -1.8696210000     -1.2029100000     -0.0148500000
H       -0.9300580000     -1.4273360000      0.0957540000
H       -3.6362510000     -1.4357260000     -1.1035050000
O       -4.5454130000     -1.1080860000     -1.0911350000
H       -4.7327280000     -1.1322780000     -0.1396870000
