  19
   W6S3At
H        0.2460350000      1.7995650000     -1.3879590000
O       -0.2808630000      2.6136440000     -1.4343420000
H       -0.2556740000      2.9009810000     -0.5065780000
H       -4.3577710000     -1.6095850000      0.5716580000
O       -3.4789960000     -1.8725600000      0.8516740000
H       -2.9490090000     -1.8299700000      0.0207810000
H       -1.9670500000      1.7830330000     -1.3505960000
O       -2.7315950000      1.2420350000     -1.0785740000
H       -2.5410820000      1.0786880000     -0.1387710000
H       -1.0607190000      0.0507420000      1.2218720000
O       -1.9107720000      0.4000240000      1.5511600000
H       -2.4933560000     -0.3797060000      1.5362710000
H        0.5273380000      1.9704580000      1.2757680000
O       -0.0830580000      2.7017060000      1.4652810000
H       -0.8794000000      2.2242680000      1.7323260000
H       -2.2654840000     -0.4937420000     -1.4746840000
O       -2.0135510000     -1.4373870000     -1.4073060000
H       -1.0786980000     -1.3810980000     -1.1484800000
At       1.2125360000     -0.4152150000      0.0007680000
