  19
   W6S31At
At      -1.7644360000      0.0311200000     -0.1912000000
H        0.4163580000      1.6570720000      0.2614880000
O        1.2237020000      1.9350310000      0.7256700000
H        1.2472350000      1.3057720000      1.4587200000
H        2.7375460000      1.8427550000     -0.3054880000
O        3.5289840000      1.7143570000     -0.8621500000
H        4.2049510000      1.3909110000     -0.2537190000
H       -0.2360620000     -0.3059930000      1.7583890000
O        0.5290340000     -0.4165430000      2.3683860000
H        0.1222760000     -0.5444850000      3.2281250000
H        4.7579770000     -0.7078670000     -0.1010660000
O        5.4370460000     -0.2390230000      0.4341060000
H        6.2386910000     -0.3351180000     -0.0820690000
H        1.2115690000     -1.7706760000      0.9491560000
O        1.1859200000     -2.1041200000      0.0424380000
H        0.3728800000     -1.6883120000     -0.2912200000
H        2.6570630000     -1.4878440000     -0.8310130000
O        3.4672750000     -1.1182100000     -1.2326630000
H        3.2709300000     -0.1733270000     -1.3455580000
