  16
  w5s1 opt at ZORA-SR  PBE/QZ4P
H       -3.1401120000      1.7678220000     -0.5336580000
O       -3.0145200000      0.8014340000     -0.5263020000
H       -3.9676370000      0.2227740000     -0.2954970000
H        3.1080980000     -1.7398330000     -0.4489830000
O        2.9154990000     -0.7840150000     -0.4660270000
H        3.8467940000     -0.1688080000     -0.2887810000
H       -5.4522680000     -0.8864660000     -0.8844010000
O       -5.0128790000     -0.5220620000     -0.0940820000
H       -5.7094380000     -0.2075720000      0.5102060000
H       -0.8264950000      0.2217130000      1.7315370000
O       -0.7769070000      0.2285210000      0.7572960000
H       -2.1797870000      0.5616950000     -0.0030490000
H        5.3484550000      0.8859910000     -0.9506660000
O        4.8775000000      0.6240000000     -0.1375510000
H        5.5525840000      0.3868320000      0.5247000000
Hg       1.0612550000     -0.2863350000      0.2234690000
