  16
  w5s6   at level ZORA-SR  PBE/QZ4P			
Hg       1.8429190000     -1.3635380000     -0.7211900000
O       -2.1725420000     -0.4816790000     -1.1033050000
H       -2.5590420000     -0.7412860000     -1.9590940000
H       -2.9430910000     -0.3269650000     -0.2995820000
O       -3.7800470000     -0.0579200000      0.6853930000
H       -4.5996760000     -0.5760060000      0.7751710000
H       -4.0114130000      0.8783170000      0.8276590000
O        0.1014080000     -4.4152970000     -0.0156540000
H       -0.1507510000     -4.7662890000      0.8553480000
H       -0.1004090000     -5.1216490000     -0.6522820000
O       -0.0423400000     -1.8937110000     -0.6243530000
H       -0.0574650000     -2.8889090000     -0.3848780000
H       -1.3618990000     -1.0650440000     -0.8813380000
O        3.8250730000     -0.6533490000     -0.8582180000
H        4.3929790000     -1.0046490000     -1.5746800000
H        4.3611860000     -0.6180840000     -0.0394480000
