  16
      file 'w5s8.log' was gotten at: ---' #p ZORA-SR PBE QZ4P'---
Hg      -0.0881880000     -0.1093060000     -0.0106530000
H       -0.8893730000      2.6198780000     -0.5016950000
O       -0.1197550000      2.2004650000     -0.0714140000
H        0.6753280000      2.6427060000     -0.4261510000
H        2.9282580000      0.0061580000     -0.1313400000
O        2.1834650000      0.1587040000     -0.7418580000
H        2.5142120000     -0.0539810000     -1.6338090000
H        0.1452050000      0.7388260000      2.8274220000
O        0.3485160000     -0.0598380000      2.3059530000
H        0.1433860000     -0.8223320000      2.8783150000
H       -3.0796230000     -0.0409910000     -0.4623620000
O       -2.2672380000      0.1432210000     -0.9696040000
H       -2.4625490000     -0.1075790000     -1.8916120000
H       -0.8566700000     -2.9335040000     -0.2502360000
O       -0.0787590000     -2.4260140000      0.0505400000
H        0.7049510000     -2.9101940000     -0.2721090000
