  16
      file 'w5s9.log' was gotten at: ---' #p ZORA-SR PBE QZ4P'---
Hg      -0.4779610000     -0.1861850000     -0.0834960000
O        2.9072940000     -2.0936690000      0.1716310000
H        3.4112700000     -2.4821210000     -0.5668210000
H        3.4752240000     -2.1504570000      0.9609940000
O        1.5503840000     -0.1116830000     -0.3631740000
H        1.9162550000      0.8134860000     -0.1410160000
H        2.1895050000     -0.9544430000     -0.0846210000
O       -2.5670710000     -0.6366360000      0.0414000000
H       -2.8660510000     -1.5141090000     -0.2752550000
H       -3.0132410000     -0.4655780000      0.8964500000
O       -0.7288310000      2.1892960000      0.2468940000
H        0.1280320000      2.6607450000      0.1641860000
H       -1.4149210000      2.7670510000     -0.1336560000
O        2.1597620000      2.4056290000      0.0702230000
H        2.6055410000      2.8516430000     -0.6745850000
H        2.6346780000      2.7108980000      0.8658580000
