  19
  w6s1   at level ZORA-SR  PBE/QZ4P			
H        6.0921450000      0.6621150000     -0.0521940000
O        5.3496970000      0.3642400000     -0.6091110000
H        5.7292760000      0.0227400000     -1.4384990000
H        1.1161910000      1.5583880000      1.3073040000
O        1.1490350000      1.0913400000      0.4519900000
H        2.5029120000      1.4541990000     -0.2734960000
H       -2.6520760000     -3.8444910000      0.7354160000
O       -2.5568530000     -3.0042070000      1.2169210000
H       -3.1298130000     -3.0733570000      2.0002950000
H       -3.1293660000     -0.3479610000     -0.3483040000
O       -2.2663320000     -0.9120250000     -0.1542080000
H       -2.4431350000     -1.7588870000      0.4394190000
H        3.2884180000      2.4285710000     -1.3499880000
O        3.3992900000      1.8333590000     -0.5878120000
H        4.2856650000      1.1555030000     -0.6530640000
H       -4.9765240000      0.7376460000     -0.1252780000
O       -4.2624010000      0.5048380000     -0.7434940000
H       -4.6871560000      0.3481760000     -1.6043800000
Hg      -0.5686520000      0.1191540000      0.2098410000
