  19
  w6s5  opt at ZORA-SR  PBE/QZ4P
Hg      -0.7408790000     -0.4660670000     -0.0610570000
O        5.5039190000      1.5680270000     -0.4321960000
H        5.7388030000      2.4083870000     -0.0003680000
H        6.3769380000      0.9967180000     -0.6869890000
O        3.6835520000      0.3131930000      0.7427260000
H        3.7725110000      0.0708540000      1.6785010000
H        4.7424420000      1.0517040000      0.0951980000
O        7.4633830000      0.2061460000     -1.1157430000
H        8.2736050000      0.1271880000     -0.5833890000
H        7.7407670000      0.2686340000     -2.0464370000
O       -2.2773880000     -1.7372970000     -0.5579430000
H       -3.0719980000     -1.9868820000      0.1524540000
H       -2.6408560000     -1.6078430000     -1.4533920000
O       -3.9762920000     -2.3521010000      1.1123230000
H       -4.8647110000     -1.9524520000      1.1137690000
H       -4.0942900000     -3.3065170000      1.2703950000
O        0.8341620000      0.6176440000      0.4162890000
H        2.7245600000      0.4462670000      0.5670210000
H        0.5199450000      1.5242410000      0.5964770000
