  19
  w6s3   at level ZORA-SR  PBE/QZ4P			
H       -3.3758190000      0.5681600000      0.6918770000
O       -2.7390230000     -0.1554320000      0.2745480000
H       -3.1860260000     -0.7669330000     -0.4527230000
H        3.7855660000      0.9052700000      1.5339140000
O        3.4589580000      0.2189660000      0.9233240000
H        4.2860530000     -0.2018030000      0.3151500000
H       -0.2664370000      1.4580070000     -1.1745280000
O       -0.2712340000      0.7934340000     -0.4602030000
H       -1.8601160000      0.2150660000     -0.0133010000
H       -3.9936590000     -2.6024160000     -1.1391710000
O       -3.7227250000     -1.7167060000     -1.4348470000
H       -4.3443620000     -1.4580320000     -2.1357360000
H       -4.8594810000      2.1147130000      0.9337660000
O       -4.1914490000      1.5718650000      1.3848360000
H       -4.5512430000      1.3664840000      2.2645230000
H        5.6274340000     -1.6099540000     -0.0732200000
O        5.2213490000     -0.8018750000     -0.4372550000
H        5.9421820000     -0.2644900000     -0.8131060000
Hg       1.5870510000      0.5695350000      0.1713500000
