  19
  w6s1   at level ZORA-SR  PBE/QZ4P6			
Hg       0.0896560000      0.0754180000      0.0805430000
O       -1.0291860000      1.8704390000     -1.0939700000
H       -1.6935240000      1.7360770000     -1.7941080000
H       -1.3945970000      2.5602540000     -0.5096450000
O       -1.8043180000     -1.2945260000      0.7024870000
H       -2.6097660000     -0.9531320000      1.1319280000
H       -2.1123540000     -1.8900600000     -0.0053550000
O        0.0376910000      1.7912100000      1.7844490000
H       -0.2786020000      1.6494190000      2.6954440000
H        0.8690500000      2.2937590000      1.8669260000
O        0.1800030000     -1.6458350000     -1.6166210000
H        0.8226030000     -2.3548480000     -1.4295280000
H        0.2496700000     -1.4695360000     -2.5727690000
O        1.1826450000     -1.7150850000      1.2848000000
H        0.5838530000     -2.2353560000      1.8515560000
H        2.0063180000     -1.6091380000      1.7950300000
O        1.9701180000      1.4468290000     -0.5788890000
H        2.8592800000      1.0995090000     -0.7751500000
H        1.7682510000      2.0794520000     -1.2927930000
