   7

 Ca        0.005108   -0.594642   -0.002309
 O         1.956483    0.548271    0.005497
 H         2.858236    0.200852   -0.081885
 H         2.074782    1.506243    0.101708
 O        -1.964136    0.523053   -0.001383
 H        -2.553788    0.690096    0.751048
 H        -2.420156    0.925059   -0.757601

