   19

 Ca       -0.522781   -0.036468   -0.036885
 O        -2.179702    1.491467    0.647463
 H        -2.875895    1.851043    0.084544
 H        -2.293172    1.927575    1.500415
 O        -1.669682   -0.279462   -2.075876
 H        -2.420676   -0.856142   -2.262604
 H        -1.423691    0.094169   -2.931182
 O         3.579482    0.227081    0.051744
 H         4.183262    0.411108   -0.678242
 H         4.142116    0.119092    0.828281
 O        -1.338123   -1.537631    1.555020
 H        -0.855790   -2.274782    1.948176
 H        -2.202401   -1.539387    1.983272
 O         1.358087   -1.361155   -0.343056
 H         2.254620   -0.986916   -0.231824
 H         1.472959   -2.257786   -0.675231
 O         1.156222    1.521991    0.236803
 H         1.123389    2.472253    0.389103
 H         2.100628    1.270807    0.206212

