   25

 Ca        0.000008    0.396832    0.000030
 O         1.873002    0.042731   -1.365159
 H         2.628510   -0.514387   -1.104722
 H         2.092904    0.436106   -2.214658
 O         0.572123    2.142822    1.500085
 H         0.191284    3.017888    1.628037
 H         1.301820    2.081121    2.125965
 O        -3.704191   -1.588537    0.054135
 H        -3.862487   -2.494404    0.343754
 H        -4.567379   -1.249461   -0.209546
 O        -0.572358    2.142326   -1.500450
 H        -1.301751    2.080055   -2.126632
 H        -0.192113    3.017671   -1.628276
 O         3.704193   -1.588560   -0.054154
 H         3.862421   -2.494382   -0.343946
 H         4.567400   -1.249622    0.209628
 O         1.397632   -0.922052    1.348972
 H         2.258434   -1.260329    1.041108
 H         1.193797   -1.380357    2.169674
 O        -1.397528   -0.922200   -1.348860
 H        -2.258398   -1.260396   -1.041082
 H        -1.193635   -1.380536   -2.169534
 O        -1.872862    0.042609    1.365389
 H        -2.092688    0.435837    2.214968
 H        -2.628358   -0.514555    1.105005

