   13

 Ca       -0.667329    0.005072    0.025814
 O        -2.202855   -1.685827   -0.275191
 H        -2.010557   -2.621232   -0.431426
 H        -3.168811   -1.634625   -0.257373
 O         3.478200    0.043259   -0.495709
 H         3.999116   -0.607884   -0.979182
 H         4.101914    0.706273   -0.178866
 O         1.358870   -0.553610    0.748099
 H         1.599756   -1.042297    1.544470
 H         2.244446   -0.335594    0.283887
 O        -1.412878    2.187742   -0.029356
 H        -2.107167    2.574422   -0.581188
 H        -1.082798    2.926987    0.500644

