   10

 Ca       1.511106   -0.000012    0.000027
 O       -0.149954    1.475729   -0.000036
 H       -0.190344    2.441918   -0.000123
 H       -1.080755    1.146346    0.000037
 O       -2.410610    0.000021    0.000039
 H       -2.997605   -0.000076    0.768938
 H       -2.997576    0.000101   -0.768884
 O       -0.150020   -1.475717   -0.000055
 H       -1.080855   -1.146389   -0.000031
 H       -0.190310   -2.441913   -0.000057

