7
    file 'w2s1.log' at: ---' #p MP2(full) gen pseudo=Read opt=(MaxCycle=150) freq geom=(nocrowd, ne'---
Hg      -0.000096923      -0.00719745    -0.0006925416
O       2.0585400824    -0.0609472808     0.0511655429
H       2.5951476587     0.6130489273     0.5082568951
H       2.5942055386    -0.4604718066    -0.6593533609
O      -2.0587217519     -0.056262835    -0.0573976494
H      -2.5954864647      0.657880552    -0.4485848214
H      -2.5942891401    -0.5214831068     0.6120249352
