10
    file 'w3s2.log' at: ---' #p MP2(full) gen pseudo=Read opt=(MaxCycle=150) freq geom=(nocrowd, ne'---
Hg      0.0701350376     0.0015251044     0.0011238273
O      -1.8221114426    -0.9976448903     0.0225680295
H      -1.9720882672    -1.9562481839    -0.0004909674
H      -2.6494760032    -0.5559416331    -0.2247096843
O       2.1897493233     0.0673496254    -0.0383376713
H        2.764150296    -0.7157719681    -0.0462496459
H       2.7175651688     0.8242381094     0.2635169935
O      -1.0222683181     2.0018996844    -0.0113977784
H      -1.0409122163     2.6314288749    -0.7476386651
H      -1.2972665784     2.5002032768     0.7726915622
