13
    file 'w4s1.log' at: ---' #p MP2(full) gen pseudo=Read opt=(MaxCycle=150) freq geom=(nocrowd, ne'---
H       1.5818208894     0.0157547373    -2.5053250555
O       1.6892321702    -0.1605537725     -1.560098844
H       2.5193196829    -0.6472657936    -1.4612436809
H      -2.5313594122    -0.7744031999     0.8134844646
O      -2.0609937509    -0.3366090509     0.0901009658
H      -2.6554902385    -0.3513929393    -0.6734232573
H       1.0867529429    -2.1713346037     1.7046332378
O       1.1069911692     -1.206953276     1.6347167569
H       1.5141756188    -0.8825314124     2.4500625922
H      -0.7048757555     2.8169844352     0.5689222209
O        0.049092389     2.3013722664     0.2518121985
H       0.7580135252     2.9323723582     0.0668222927
Hg      0.1374682388     0.0604343304     0.0332266032
