13
    file 'w4s2.log' at: ---' #p MP2(full) gen pseudo=Read opt=(MaxCycle=150) freq geom=(nocrowd, ne'---
H       3.8514734308     0.0429089772    -0.7441437574
O        3.274006099    -0.1018717336     0.0233505965
H       3.7759176585     0.1053416298     0.8285193171
H      -1.2985616366      0.909550187    -0.0847166897
O      -0.7738226757    -0.0078912984    -0.2425834852
H      -1.3097234751    -0.9207404767    -0.0844074006
H      -2.3689803399     2.4062207208     0.8433889833
O      -1.8837659241     2.1490377913     0.0497397479
H      -2.3495015642       2.54426878    -0.6980140926
H      -2.3887316646    -2.4073784823     0.8438149432
O      -1.9040108885    -2.1520719065     0.0492412308
H      -2.3729718297    -2.5438823723    -0.6983176223
Hg      1.2002268098    -0.0234518161    -0.0837317709
