16
    file 'w5s10.log' at: ---' #p MP2(full) gen pseudo=Read opt=(MaxCycle=150) freq geom=(nocrowd, ne'---
Hg     -0.3488539116    -0.6296732019    -0.1309905826
O       3.2165310408     0.8553450026    -0.5577203047
H       3.7655223792     1.2579226188     0.1291395784
H       3.7456388927     0.9294401451    -1.3636197424
O        -1.62361881     -0.738047876     1.7822659419
H      -2.0790470448      0.017621966     2.1782425518
H      -1.4552330327    -1.3505477109     2.5114768977
O       0.5768012126     1.3327722848    -0.5198269742
H       1.5587898599     1.3673193041    -0.6180923158
H        0.186449357     2.1024645806    -0.9533047913
O       1.7566796656    -1.3859047377     0.0101412814
H       2.1017206936    -2.2866971604     0.0438035258
H       2.4945459012    -0.7690383804     -0.179364661
O      -1.9442984503    -1.8856926584    -1.0261867563
H      -2.0364551932    -2.1766231278      -1.94367451
H      -2.7878615601    -2.0526650486    -0.5847301386
