16
    file 'w5s1.log' at: ---' #p MP2(full) gen pseudo=Read opt=(MaxCycle=150) freq geom=(nocrowd, ne'---
H      -3.1373814357     1.7695407817    -0.5821923922
O      -3.0004767226      0.813353379    -0.5559925763
H      -3.9068296864     0.2590252924    -0.3103778134
H       3.1266526534    -1.7757839271    -0.5132825133
O       2.9065974746    -0.8362832787    -0.4510013018
H       3.7829021732    -0.2491881933    -0.2871124157
H      -5.4443144165    -0.9038108721    -0.8115339039
O      -4.9775143008     -0.498801709    -0.0705462353
H      -5.6401466829    -0.2540587703     0.5860944859
H      -0.8436076762     0.2704363163     1.6708246112
O      -0.7889095108     0.2398363714     0.7037789563
H      -2.1723086056     0.5857515486    -0.0374789207
H       5.3293855867     0.9254322599    -0.8863549257
O       4.8484613827     0.6040798624     -0.113913907
H       5.5025571971     0.4644091472     0.5812685954
Hg        1.04507357    -0.3082472083     0.1960292565
