16
    file 'w5s2.log' at: ---' #p MP2(full) gen pseudo=Read opt=(MaxCycle=150) freq geom=(nocrowd, ne'---
H      -5.5443923749    -0.9258094149     0.4618195101
O      -4.8849249634    -0.7092522832    -0.2078054522
H      -5.3128995042    -0.7913361836    -1.0686826435
H       3.3992994081     1.5139976118    -0.1554410345
O       2.9121191753     0.7052322069    -0.3644442782
H       3.5815560272    -0.1079946976    -0.5356993906
H      -3.9794499535     0.2501778733    -0.0207391385
O      -3.1994889306      1.008922448      0.059290801
H      -3.5046981952     1.8213497363     0.4841568536
H       4.6717069475    -1.3542847442    -1.7137215754
O       4.3550015699    -1.2128736301    -0.8132098045
H       5.0629726095    -1.4975531457    -0.2229788267
H      -2.3173976476     0.7176080016      0.438015685
O      -0.8573321746     0.3067928199     0.9713884624
H      -0.8609245166    -0.0998601471     1.8510080287
Hg      1.0214135232     0.4889805484     0.3721148036
