16
    file 'w5s5.log' at: ---' #p MP2(full) gen pseudo=Read opt=(MaxCycle=150) freq geom=(nocrowd, ne'---
Hg       -0.80270257    -2.7152300633     0.7927635367
O       0.7770900377    -3.7456587425      2.290640458
H       1.2969362898    -4.5435235439     2.1347946214
H       1.0248173757    -3.4490139288     3.1748069124
O      -2.3094682116    -2.6666559636     2.1952174257
H      -2.7506371326    -3.5552926964     2.5995917394
H       -2.982964466    -1.9763796106     2.1110160002
O      -3.2256751437    -4.7216777483     3.1467720123
H      -4.0339147791    -5.1382304543      2.823090863
H      -3.2331646203    -4.8192197495     4.1071158833
O       0.5249766755    -2.6470328723    -0.7795716966
H       0.1631593988    -2.6617768419    -1.6773674849
H       1.4152821866    -2.0514893694    -0.7579548803
O        2.582731804     -1.336846544    -0.6485233389
H       3.4219330416    -1.7820012214    -0.8200091877
H       2.6655251135    -0.4469816497    -1.0129708642
