16
    file 'w5s6.log' at: ---' #p MP2(full) gen pseudo=Read opt=(MaxCycle=150) freq geom=(nocrowd, ne'---
Hg      1.1905912695    -2.0097068151    -0.5989822106
O      -2.5386590366     0.0007979887    -1.0475348787
H      -2.8737922742     0.0057509359    -1.9537835485
H       -3.322889805     0.1316607621    -0.3058894144
O      -4.2172984989     0.3430579626     0.6683041859
H      -5.0976171331    -0.0503017149     0.6493567964
H      -4.3080837308      1.227768397     1.0424117918
O       2.2762627197    -4.2710690163    -0.1986893148
H       2.3248812173    -4.7076870596     0.6618870069
H       2.2917121713       -4.9968208    -0.8361303206
O      -0.7989126048    -1.8971266697     -0.719164304
H      -1.1580694441    -2.7926649688     -0.634113543
H      -1.8970635308    -0.7609320269    -0.9059568147
O       3.2811828118    -1.7365507257    -0.4571569642
H       3.7914099077    -2.5607579334    -0.4834211258
H       3.8012359611    -1.0214773157    -0.8515863418
