19
    file 'w6s12.log' at: ---' #p MP2(full) gen pseudo=Read opt=(MaxCycle=150) freq geom=(nocrowd, ne'---
H      -3.6613272276      2.652936841    -0.8804477617
O      -3.1654870122     2.4604469902    -0.0770552797
H      -3.6733449888     2.8422464281     0.6478986831
H       2.5474343606     2.1855261116    -0.0039414852
O       2.2901683514      1.270857039    -0.1810492147
H       3.1091106338     0.6238360921     -0.054788889
H      -2.0746452972    -0.4164502862     0.1670432185
O      -1.6953139714     0.4887420286     0.3338601877
H      -2.3500448613     1.2583055548     0.1290747206
H      -0.3758439919    -2.1834440578    -0.0782784739
O       0.4532711347    -1.6790053194    -0.0866672709
H       1.1724834772    -2.3155697513     -0.165105494
H       4.6926287131    -0.3930956219     0.8335711896
O       4.1480950622    -0.3318001499     0.0391845448
H       4.7533469535    -0.4253683164    -0.7070556203
H      -2.7828868905    -2.4741530398     0.7683295872
O      -2.3628794639    -2.0446224465     0.0115792931
H      -2.8456665844    -2.3770842087     -0.756086093
Hg      0.3243436025     0.6969961123     0.0593361582
