19
    file 'w6s15.log' at: ---' #p MP2(full) gen pseudo=Read opt=(MaxCycle=150) freq geom=(nocrowd, ne'---
H      -1.1016913327     2.6026541587    -1.0754111187
O      -1.0925683488     1.6536978438    -1.2493810436
H       -1.623947343     1.5236612595    -2.0441046546
H       1.6221385946     2.1311833742     1.4016352957
O        0.794831561     1.6398844845     1.4726810379
H       0.3629720836     1.9602285749     2.2737700887
H       2.0308910138     0.8680417693    -2.0626623853
O       1.9124858205     0.2587278153    -1.3240263567
H       2.7453756977    -0.2206431658    -1.2382661239
H      -2.0288881917     -0.870278955     2.0648308693
O      -1.9140445783    -0.2607284234     1.3258330179
H      -2.7477691958      0.217794521     1.2434586064
H       1.6224134429    -1.5264943782     2.0421615257
O       1.0914157404    -1.6529854245     1.2466063315
H       1.0975603332    -2.6015689216     1.0705146606
H      -0.3583888183    -1.9558323205    -2.2726298632
O      -0.7922091429    -1.6384393445    -1.4714318284
H      -1.6193570929    -2.1304995631    -1.4038350222
Hg     -0.0013802433     0.0020066954     0.0010469632
