19
    file 'w6s18.log' at: ---' #p MP2(full) gen pseudo=Read opt=(MaxCycle=150) freq geom=(nocrowd, ne'---
H       3.8444090951    -1.7952190999     0.6939501934
O        3.206497649    -1.7720066934    -0.0274075028
H       3.6567010326    -2.1591037812    -0.7865044786
H       2.1575415412    -0.7137871914     -0.218766511
O       1.3714437227    -0.0857310922    -0.3926944708
H       1.6330149774     0.8642140514     -0.335127897
H       -2.035138331    -1.7403641742     2.4444180176
O      -2.1287928677    -1.3868558455     1.5491097553
H       -2.857586277    -1.8572632434     1.1214690675
H       2.1295002511     3.0693428598     0.3647300472
O       1.5620811353     2.6032734073    -0.2628922935
H        1.707753775     3.0609032815     -1.101339713
H      -0.2773139867      2.386764592      0.263904539
O      -1.0268107048      1.789277443     0.4356186476
H      -1.7031371088     2.2933892057     0.9029063522
H      -2.7719710936    -0.3607312146    -1.7363837836
O      -2.2085945363    -1.0349434143    -1.3343261694
H      -2.1160745734    -1.7203176096    -2.0091538911
Hg     -0.5701637005     -0.494541481     0.2966300912
