19
    file 'w6s1.log' at: ---' #p MP2(full) gen pseudo=Read opt=(MaxCycle=150) freq geom=(nocrowd, ne'---
Hg     -0.0001326399    -0.0705034761     0.0081172908
O       5.8906432765    -0.4148614497     0.3722914647
H       6.5335765106    -0.7470956544    -0.2633773167
H       6.3601635754    -0.2970295574     1.2054927797
O      -5.8911482167    -0.4318900652    -0.3339346964
H      -6.5344390126    -0.7224195047     0.3214938671
H       -6.360489602    -0.3669006273    -1.1730128859
O      -3.9777148739     1.0598994285     0.0949404955
H      -4.1949255295     1.8197239721     0.6500334636
H      -4.8098930908     0.4341991616     -0.046097106
O       3.9785182641     1.0483543432    -0.1504953812
H       4.8101604586     0.4321395196     0.0300173091
H       4.1963349265     1.7711411197    -0.7528046825
O       1.8321715357    -0.0533251926     -0.785727833
H       3.1059235544     0.5670791783    -0.4345975469
H       1.8793118029    -0.6690969994    -1.5294262576
O      -1.8323981425    -0.0010398102     0.7991924405
H      -3.1055540579     0.5969008345     0.4091716812
H      -1.8800847388    -0.5680462204     1.5806739142
