19
    file 'w6s19.log' at: ---' #p MP2(full) gen pseudo=Read opt=(MaxCycle=150) freq geom=(nocrowd, ne'---
Hg      0.2444605982     0.0472542234     0.0061260797
O        1.697443641    -0.6735034268    -1.6577297855
H       1.6097020164    -0.5569769123      -2.61235058
H       2.3174765948    -1.4037879376    -1.5367745834
O      -1.4378073349     1.5400423538     0.1048275493
H      -1.4214535124     2.4840662182    -0.0903881283
H      -2.3673953208     1.2281073173     0.0592470233
O       -3.731256725     0.0768956802       0.01626639
H      -4.3573573652     0.1463999481    -0.7161970072
H      -4.2878951472     0.0231447671     0.8042077757
O       1.2868828457    -1.2824876452     1.5892719722
H       0.8608899114    -1.9962364054     2.0804944695
H       2.0482269784    -1.0133368621      2.118321906
O      -1.4615335098    -1.4594354595    -0.1329426866
H      -2.3829118908    -1.1248736889    -0.1295183464
H      -1.4623159781    -2.3213433322    -0.5657326303
O       1.8658320181     1.6458543686     0.4311422102
H       2.6067836378     1.8231569173    -0.1617238023
H       1.8563785421      2.366238876     1.0739151742
