19
    file 'w6s22.log' at: ---' #p MP2(full) gen pseudo=Read opt=(MaxCycle=150) freq geom=(nocrowd, ne'---
Hg      0.6225035528    -0.3244045262    -0.0205564411
O      -0.5615403875    -1.9804527287     0.5875093074
H      -0.5041102438    -2.8333473983     0.1367596742
H      -1.5496494834    -1.7396951138     0.7748207083
O       1.6257908692     0.8293510218     1.7543325739
H       1.9869304895     0.4011368487     2.5420113993
H       1.3513309319      1.709115907     2.0442864425
O      -2.8373438015    -1.1540136807     1.1167485557
H      -3.3476405001    -0.6242013029     0.4852144556
H      -3.4591834322    -1.6062347222     1.6973371881
O      -0.8101677404     1.2443379033    -0.8498407302
H      -1.7927395786     1.1563208921     -0.894788742
H      -0.5567575465      1.956785911    -1.4481965146
O      -3.4954050799     0.8472241932    -0.8114098765
H      -4.0139216447      1.568935075    -0.4322234351
H      -3.9516485239     0.6345610926    -1.6357925773
O       2.4160662754     0.4270696611    -1.1146275813
H       3.1625204824     0.7841555664    -0.6142374189
H       2.7731153612     0.0890554007    -1.9473969881
