19
    file 'w6s23.log' at: ---' #p MP2(full) gen pseudo=Read opt=(MaxCycle=150) freq geom=(nocrowd, ne'---
Hg      0.5079952901    -0.0755638113    -0.0213735073
O      -0.8675980383     1.7406463858     0.0821260275
H      -0.5844317621     2.6515271549    -0.0591815127
H      -1.8509682638     1.7203498608    -0.0060531714
O       -2.994364563     -1.265616407     0.5006814293
H      -3.4789434579    -0.4687765186     0.2359911622
H      -3.6384679007    -1.9346954908     0.7570940397
O       1.5000527778    -0.0375157213     2.1002548855
H       1.8380113632    -0.8213621405     2.5536933276
H       1.2371627348     0.5712341905     2.8028958043
O      -0.7293545991    -1.7667458077    -0.3710544008
H      -1.7149107243    -1.6275495281    -0.0903412113
H      -0.6835572478    -2.2620433272    -1.1995876973
O       2.3422569104     1.0762949063    -0.5578792611
H       3.0847329974     1.1022573022     0.0610839746
H       2.7105426973     1.2049260456    -1.4427776634
O       -3.562480441     1.4684448328    -0.1031946051
H      -4.0072026466     1.7316571224    -0.9192325049
H      -4.0702961264     1.9025229509     0.5947938848
