19
    file 'w6s2.log' at: ---' #p MP2(full) gen pseudo=Read opt=(MaxCycle=150) freq geom=(nocrowd, ne'---
H       6.0653553878     0.6373099046    -0.0506194119
O       5.3217777611      0.395775698    -0.6157193987
H       5.6900857793    -0.0058392926     -1.410815521
H       1.1571787538     1.4777970645       1.30166364
O        1.161433559     1.0503438991     0.4323475943
H       2.4949745311     1.4627179306    -0.2765848678
H      -2.6362464258      -3.86757623     0.7679202824
O      -2.5663885219    -3.0172032961     1.2157011255
H      -3.0714561324    -3.1078509168     2.0308256522
H      -3.1138873343    -0.3759595076    -0.3488927379
O      -2.2728927291    -0.9193839355    -0.1459276747
H      -2.4601869167    -1.7495035872     0.4194279902
H       3.2753209172     2.4560177195    -1.3227190614
O       3.3771494805     1.8534133949    -0.5759315416
H       4.2317083697     1.2035747579    -0.6464323902
H      -4.9388831404     0.8305169567    -0.1705999584
O       -4.245967389     0.5186471514    -0.7625096616
H      -4.6669461342     0.4039234869    -1.6216757246
Hg     -0.5618098158     0.0926188019     0.2019016653
