19
    file 'w6s3.log' at: ---' #p MP2(full) gen pseudo=Read opt=(MaxCycle=150) freq geom=(nocrowd, ne'---
Hg     -0.7419543202    -0.5046018161    -0.0853417785
O       5.5111695039      1.610971691    -0.4395748308
H       5.7418116696      2.442242125    -0.0069567418
H       6.3616173893     1.0570720433    -0.6872769425
O       3.7063676562     0.3553944505     0.7347328184
H       3.8051937156     0.0165742658     1.6289927193
H       4.7747648736      1.100057472     0.0767001859
O       7.4721417663     0.2663362771    -1.1120756132
H       8.2521715475     0.0920894712    -0.5752880327
H       7.7629369847      0.274163744     -2.030237439
O      -2.3166237508     -1.722447558    -0.6017187146
H      -3.0771220819    -1.9620257218     0.0730601697
H      -2.6676453197    -1.6808086321    -1.5010002294
O      -4.0164421537    -2.3184348266      1.089495876
H      -4.8744520257     -1.889252149     1.1821392099
H      -4.1506670018    -3.2457130488     1.3169186576
O       0.8552026227     0.5348775566     0.4069315103
H       2.7525042618     0.4164681144     0.5573073131
H       0.5526446625     1.4225865415     0.6537418624
