19
    file 'w6s4.log' at: ---' #p MP2(full) gen pseudo=Read opt=(MaxCycle=150) freq geom=(nocrowd, ne'---
H      -3.3349265161     0.5515057512     0.6721949362
O      -2.7088345449    -0.1579709107     0.2781826147
H      -3.1541203446    -0.7598790006    -0.4220927633
H       3.7863891625     0.8245062739     1.6332850081
O       3.4462598449     0.2323913057     0.9490497756
H       4.2370928498    -0.1533930436     0.3657956337
H      -0.2816815115     1.4076367262    -1.1681994745
O      -0.2870268032     0.7687408807    -0.4394010227
H      -1.8402985318     0.2081146883    -0.0167570332
H       -4.008494422    -2.6051764146    -1.1239542973
O      -3.7430001292     -1.718685149    -1.3898729302
H      -4.2939482536    -1.4874173537    -2.1442822525
H      -4.7966971417       2.16594657     0.9048658286
O      -4.1932277326     1.5591449081     1.3451193724
H      -4.5587242765     1.4052972405     2.2225386156
H       5.6056612612    -1.5912306574    -0.1764930765
O       5.2054258934    -0.7569703201    -0.4489809958
H       5.8995580428    -0.2498098193    -0.8857833516
Hg      1.5676131534     0.5611083243     0.2039854125
