19
    file 'w6s6.log' at: ---' #p MP2(full) gen pseudo=Read opt=(MaxCycle=150) freq geom=(nocrowd, ne'---
Hg     -0.5254678224    -0.0782155766    -0.1650834335
O       0.9881276605     2.9883131682     0.0815511862
H       1.3338808677     3.5123091627    -0.6490850137
H       0.9296262878     3.6060233783     0.8184480569
O      -2.4236893032    -0.6552598079    -0.6771884211
H      -3.2539410781    -0.5739156632    -0.0358670056
H      -2.6995914062    -0.6100513849    -1.6020438647
O       1.3192910526     0.3796752081     0.3514457505
H       1.3605586557     1.3707289458     0.2940683368
H       2.5069006157    -0.4078386165     0.7317773653
O      -4.2924623807    -0.5167517281     0.9147255301
H      -4.9589558575     0.1798891007     0.9078216493
H        -4.74673212    -1.3266949089     1.1753488846
O       3.2925457291    -1.0127000091     1.0142069226
H       4.1629461195    -0.9683528431     0.4200946873
H       3.4939252981    -0.9161947046     1.9537256813
O       5.2768674427    -0.9872891832    -0.4364165638
H       6.0259426097    -0.3880805968    -0.3471851348
H       5.6297336291    -1.8263799408    -0.7534956136
