19
    file 'w6s9.log' at: ---' #p MP2(full) gen pseudo=Read opt=(MaxCycle=150) freq geom=(nocrowd, ne'---
Hg        0.31283907     0.1168644375    -0.1410974829
O       4.1570643377     1.1741654064    -0.0901900542
H       4.5985244791     1.8791427169    -0.5815518154
H       4.8715706233      0.667208335     0.3163445386
O      -5.5899663485     1.0056737168    -0.4105909808
H      -6.0241961311     1.2897664424    -1.2230798704
H       -6.253709356     1.0386924662     0.2872250829
O      -3.7805855777    -0.6384884012    -0.5541077628
H      -4.0514974808    -1.5413854587    -0.3433642818
H      -4.5832599471     0.0504834827    -0.4568492328
O       1.6436072779     1.6175240583     1.2421677214
H       1.3768621084     2.2369502039     1.9304782071
H       2.5964229495      1.738766005     1.1227919984
O       2.1187655277     0.0557932592    -1.2137637237
H       2.9680366667     0.4274375826    -0.8200293868
H       2.3294647652    -0.6629926091    -1.8234150534
O      -1.5772940904    -0.0360216081     0.5235458981
H      -1.5853618563     0.0673345941     1.4850984414
H      -2.9058170174    -0.3906146298     -0.082012243
