   19
Isomer: w2s5
 P                     0.35677  -0.03608  -0.22651 
 O                    -0.31057  -1.30928   0.21767 
 O                    -0.30287   0.97759  -1.10777 
 O                     1.80258  -0.41616  -0.93068 
 O                     0.8735    0.69631   1.16863 
 C                     1.41991   2.00072   1.02367 
 C                     2.5543   -1.45031  -0.30949 
 H                     0.67178   2.69742   0.63394 
 H                     3.46019  -1.58611  -0.90626 
 H                     1.98432  -2.38388  -0.27916 
 H                     2.28114   1.99575   0.34406 
 H                     2.83255  -1.17534   0.71554 
 H                     1.74596   2.32159   2.01674 
 O                    -3.18687   1.01131  -0.88642 
 H                    -3.23732   0.21932  -0.33517 
 H                    -2.23154   1.07208  -1.05702 
 O                    -2.87445  -1.38371   0.96741 
 H                    -2.7809   -1.09691   1.87783 
 H                    -1.93361  -1.43365   0.6714 
