   22
Isomer: w3s24
 P                    -0.44665  -0.3012    0.4742 
 O                     0.17248   1.07645   0.5584 
 O                    -0.82468  -1.08563   1.68994 
 O                     0.55485  -1.16138  -0.50693 
 O                    -1.7439   -0.2284   -0.55885 
 C                    -2.99704   0.08265   0.04322 
 C                     0.24783  -2.53688  -0.71594 
 H                    -2.98085   1.0827    0.49051 
 H                     1.05157  -2.94682  -1.33095 
 H                    -0.70743  -2.63886  -1.24195 
 H                    -3.25207  -0.6544    0.8109 
 H                     0.19707  -3.07114   0.23717 
 H                    -3.74373   0.06388  -0.75412 
 O                    -1.16285   2.80783  -1.1917 
 H                    -0.61709   2.35996  -0.51759 
 H                    -1.41957   2.05019  -1.72437 
 O                     3.27607  -0.35016  -1.12726 
 H                     2.34409  -0.59561  -1.04398 
 H                     3.34245   0.32339  -0.43537 
 O                     2.77068   1.52167   1.08131 
 H                     2.82905   1.21021   1.9867 
 H                     1.81033   1.41679   0.88709 
