   22
Isomer: w3s38
 P                    -1.10908  -0.58739  -0.23632 
 O                    -0.09317  -1.24464  -1.12835 
 O                    -2.35202  -1.26682   0.24007 
 O                    -1.45295   0.8727   -0.9157 
 O                    -0.29029   0.04392   1.08985 
 C                     0.18964  -0.90189   2.04152 
 C                    -2.48858   1.63406  -0.30074 
 H                     0.88752  -1.606     1.57573 
 H                    -2.58313   2.55883  -0.87452 
 H                    -2.23102   1.87585   0.7363 
 H                    -0.64635  -1.45203   2.48662 
 H                    -3.43478   1.08567  -0.31562 
 H                     0.71487  -0.33891   2.81584 
 O                     3.75982   0.91687   0.12995 
 H                     2.97129   1.47701   0.13508 
 H                     3.40032   0.07217  -0.18286 
 O                     2.52824  -1.5326   -0.8452 
 H                     2.77826  -1.83302  -1.72086 
 H                     1.54908  -1.41521  -0.9301 
 O                     1.11069   2.2466    0.12018 
 H                     0.65275   1.52625   0.59029 
 H                     0.68846   2.17883  -0.74229 
