   22
Isomer: w3s4
 P                    -0.22106  -0.40987  -0.09046 
 O                    -1.07358  -1.5863    0.25918 
 O                     1.15367  -0.49518  -0.69763 
 O                    -0.02246   0.56854   1.23339 
 O                    -1.16268   0.55525  -1.05653 
 C                    -0.53277   1.69608  -1.63367 
 C                    -1.15984   0.73088   2.07809 
 H                     0.28111   1.39426  -2.29891 
 H                    -0.87101   1.42935   2.86709 
 H                    -1.45604  -0.22576   2.51742 
 H                    -0.12852   2.35668  -0.85813 
 H                    -2.01055   1.13959   1.52174 
 H                    -1.29931   2.22898  -2.20126 
 O                     2.84608   1.39329   0.41131 
 H                     2.27211   1.46208   1.18046 
 H                     2.30085   0.7993   -0.14101 
 O                    -3.74242  -0.79812  -0.27306 
 H                    -3.29365  -0.12379  -0.79426 
 H                    -2.9616   -1.29815   0.0237 
 O                     3.73899  -1.56575  -0.22981 
 H                     2.80048  -1.44622  -0.45166 
 H                     3.93681  -0.70394   0.15026 
