4
    file 'w1s1.out' was gotten at: ---' ZORA-SR+SO PBE/QZ4P'---
   Hg	-0.22513000	0.01073900	0.00000000
   O	1.82137600	-0.09016500	0.00000000
   H	2.32594500	0.18731000	0.79892000
   H	2.32594500	0.17731000	-0.79892000
7
    file 'w2s1.out' was gotten at: ---' ZORA-SR+SO PBE/QZ4P'---
    Hg	-0.00008200	-0.02961600	-0.00184800
    O	2.05467200	-0.11594700	0.10643400
    H	2.53642600	0.65279300	0.49481500
    H	2.55072500	-0.43464400	-0.68489400
    O	-2.05479800	-0.10631800	-0.11707500
    H	-2.53699000	0.69427800	-0.43396700
    H	-2.55065400	-0.49597800	0.64195500
10
    file 'w3s1.out' was gotten at: ---' ZORA-SR+SO PBE/QZ4P'---
   Hg	0.38537300	-0.03715500	-0.00082400
   O	2.32280300	0.71221200	-0.00099100
   H	2.87898700	0.56744500	-0.79732900
   H	2.87968500	0.56631700	0.79481800
   O	-1.51278000	-0.61357000	-0.00086900
   H	-2.78292600	0.06954800	-0.00022900
   H	-1.55894800	-1.59031800	0.00732900
   O	-3.69828300	0.62235000	0.00018300
   H	-4.24484300	0.49114100	-0.80521100
   H	-4.24788200	0.48406600	0.80208500
10
    file 'w3s2.out' was gotten at: ---' ZORA-SR+SO PBE/QZ4P'---
   Hg	0.11481200	0.01217300	0.01045400
   O	-1.80940200	-0.94573500	0.20342900
   H	-1.89835500	-1.90678700	0.02540800
   H	-2.56264600	-0.48662000	-0.22644200
   O	2.23554200	0.11885300	-0.15861500
   H	2.73301400	-0.72721100	-0.20479600
   H	2.72011600	0.71509200	0.45339800
   O	-1.19395000	1.94934400	-0.07419900
   H	-1.04226400	2.61016400	-0.78048700
   H	-1.35938900	2.46176400	0.74292500
10
    file 'w3s3.out' was gotten at: ---' ZORA-SR+SO PBE/QZ4P'---
   Hg	-0.69484700	-0.39971600	0.00048100
   O	1.30357100	2.64796400	-0.00109200
   H	1.64966900	3.10736900	0.78881600
   H	1.65874500	3.10635700	-0.78725900
   O	1.20492400	0.20530200	-0.00016900
   H	2.23231500	-0.71515600	0.00023800
   H	1.26855100	1.33310900	-0.00056100
   O	3.00681200	-1.49377500	-0.00030700
   H	3.57168700	-1.51517400	-0.80231000
   H	3.57107100	-1.51655000	0.80222100
13
    file 'w4s1.out' was gotten at: ---' ZORA-SR+SO PBE/QZ4P'---
   H	3.53965100	-2.90498900	-0.05306000
   O	3.25185700	-2.11522000	0.44723500
   H	4.04532300	-1.65186700	0.78256100
   H	-3.26548200	-0.15208700	0.02306900
   O	-2.15642300	0.08000400	0.57631000
   H	-2.19194900	0.74785600	1.28652400
   H	-4.78318900	0.33400600	-0.85194000
   O	-4.26471600	-0.42283400	-0.51271000
   H	-4.86258500	-1.00967300	-0.00771300
   H	1.88109300	-0.17866600	-1.36224000
   O	1.56247100	-0.76324600	-0.64919100
   H	2.46502100	-1.44536900	-0.09234300
   Hg	-0.28616900	-0.29362600	-0.03661800
13
    file 'w4s2.out' was gotten at: ---' ZORA-SR+SO PBE/QZ4P'---
   H	4.56255700	1.30688700	-0.42038300
   O	4.13637500	0.69889700	0.21412100
   H	4.83584200	0.20798600	0.68541200
   H	-0.29851800	-0.84870800	1.54829700
   O	-0.29282500	-0.50114400	0.63413000
   H	1.37959100	-0.48089600	-0.16861800
   H	-4.50129600	1.26728300	-0.03530900
   O	-4.05811500	0.51406500	-0.47963200
   H	-4.72308600	-0.19448400	-0.61089000
   H	3.20766600	0.05861100	-0.22019400
   O	2.22603500	-0.48894800	-0.68385700
   H	2.37427700	-1.38051000	-1.04819000
   Hg	-2.14743200	-0.03618000	0.17887300
13
    file 'w4s3.out' was gotten at: ---' ZORA-SR+SO PBE/QZ4P'---
   H	3.82444500	0.10527600	-0.66719700
   O	3.30008500	-0.16825500	0.11595500
   H	3.75423600	0.15910600	0.92179800
   H	-1.27538500	0.94928400	0.00516400
   O	-0.74386500	-0.01775800	-0.12609000
   H	-1.29964200	-0.97709500	0.00529100
   H	-2.39421600	2.37435800	0.87399000
   O	-1.86107500	2.14950500	0.08939700
   H	-2.34015000	2.48415000	-0.69124800
   H	-2.44088900	-2.37394600	0.87245200
   O	-1.90393600	-2.15863700	0.08766800
   H	-2.38781200	-2.48408100	-0.69403100
   Hg	1.22264500	-0.04283200	0.01636600
13
    file 'w4s4.out' was gotten at: ---' ZORA-SR+SO PBE/QZ4P'---
   H	1.43112600	-0.36601600	-2.49427400
   O	1.62577800	-0.15580800	-1.55965800
   H	2.40627400	-0.68837600	-1.30974900
   H	-2.70297600	-0.87149400	0.48004300
   O	-2.26392000	-0.22016900	-0.10349200
   H	-2.69158100	-0.29815700	-0.98014700
   H	1.24398500	-1.91815600	1.82788100
   O	1.41712500	-1.01983800	1.48349900
   H	1.70866100	-0.48707500	2.24941400
   H	-0.57962200	2.68119200	0.99069800
   O	0.19939600	2.17560700	0.68830100
   H	0.73806300	2.79508700	0.15967700
   Hg	-0.04216100	-0.03092300	-0.01850300
