    7
   structure 0
Hg     0.3762460000  -0.0692620000  -0.0000100000
O     -1.4884030000  -0.6254770000   0.0000810000
O     -3.6746360000   0.6138610000   0.0001090000
H     -2.7810850000   0.0684690000  -0.0013760000
H     -1.5531640000  -1.5982250000  -0.0006690000
H     -4.2211980000   0.5148500000  -0.8035840000
H     -4.2199760000   0.5121090000   0.8042870000
    7
   structure 20
Hg     0.3762460000  -0.0692620000  -0.0000100000
O     -1.4884030000  -0.6260061772   0.0000810000
O     -3.6746360000   0.6138610000   0.0001090000
H     -2.7810850000   0.0684690000  -0.0013760000
H     -1.5531640000  -1.5982250000  -0.0006690000
H     -4.2211980000   0.5148500000  -0.8035840000
H     -4.2199760000   0.5121090000   0.8042870000
    7
   structure 40
Hg     0.3762460000  -0.0692620000  -0.0000100000
O     -1.4884030000  -0.6254770000   0.0000810000
O     -3.6746360000   0.6138610000   0.0001090000
H     -2.7816141772   0.0684690000  -0.0013760000
H     -1.5531640000  -1.5982250000  -0.0006690000
H     -4.2211980000   0.5148500000  -0.8035840000
H     -4.2199760000   0.5121090000   0.8042870000
    7
   structure 60
Hg     0.3762460000  -0.0692620000  -0.0000100000
O     -1.4884030000  -0.6254770000   0.0000810000
O     -3.6746360000   0.6138610000   0.0001090000
H     -2.7810850000   0.0684690000  -0.0013760000
H     -1.5531640000  -1.5982250000  -0.0011981772
H     -4.2211980000   0.5148500000  -0.8035840000
H     -4.2199760000   0.5121090000   0.8042870000
    7
   structure 80
Hg     0.3762460000  -0.0692620000  -0.0000100000
O     -1.4884030000  -0.6254770000   0.0000810000
O     -3.6746360000   0.6138610000   0.0001090000
H     -2.7810850000   0.0684690000  -0.0013760000
H     -1.5531640000  -1.5982250000  -0.0006690000
H     -4.2211980000   0.5148500000  -0.8035840000
H     -4.2199760000   0.5115798228   0.8042870000
