    7
 
Hg     0.3762460000  -0.0692620000  -0.0000100000
O     -1.4884030000  -0.6254770000   0.0000810000
O     -3.6746360000   0.6138610000   0.0001090000
H     -2.7810850000   0.0684690000  -0.0013760000
H     -1.5531640000  -1.5982250000  -0.0006690000
H     -4.2211980000   0.5148500000  -0.8035840000
H     -4.2199760000   0.5121090000   0.8042870000
    7
 
Hg     0.3762460000  -0.0692620000  -0.0000100000
O     -1.4884030000  -0.6254770000   0.0000810000
O     -3.6746360000   0.6138610000   0.0001090000
H     -2.7810850000   0.0684690000  -0.0013760000
H     -1.5531640000  -1.5982250000  -0.0006690000
H     -4.2211980000   0.5148500000  -0.8035840000
H     -4.2199760000   0.5121090000   0.8042870000
    7
 
Hg     0.3767751772  -0.0692620000  -0.0000100000
O     -1.4884030000  -0.6254770000   0.0000810000
O     -3.6746360000   0.6138610000   0.0001090000
H     -2.7810850000   0.0684690000  -0.0013760000
H     -1.5531640000  -1.5982250000  -0.0006690000
H     -4.2211980000   0.5148500000  -0.8035840000
H     -4.2199760000   0.5121090000   0.8042870000
    7
 
Hg     0.3767751772  -0.0692620000  -0.0000100000
O     -1.4884030000  -0.6254770000   0.0000810000
O     -3.6746360000   0.6138610000   0.0001090000
H     -2.7810850000   0.0684690000  -0.0013760000
H     -1.5531640000  -1.5982250000  -0.0006690000
H     -4.2211980000   0.5148500000  -0.8035840000
H     -4.2199760000   0.5121090000   0.8042870000
    7
 
Hg     0.3757168228  -0.0692620000  -0.0000100000
O     -1.4884030000  -0.6254770000   0.0000810000
O     -3.6746360000   0.6138610000   0.0001090000
H     -2.7810850000   0.0684690000  -0.0013760000
H     -1.5531640000  -1.5982250000  -0.0006690000
H     -4.2211980000   0.5148500000  -0.8035840000
H     -4.2199760000   0.5121090000   0.8042870000
    7
 
Hg     0.3757168228  -0.0692620000  -0.0000100000
O     -1.4884030000  -0.6254770000   0.0000810000
O     -3.6746360000   0.6138610000   0.0001090000
H     -2.7810850000   0.0684690000  -0.0013760000
H     -1.5531640000  -1.5982250000  -0.0006690000
H     -4.2211980000   0.5148500000  -0.8035840000
H     -4.2199760000   0.5121090000   0.8042870000
    7
 
Hg     0.3762460000  -0.0687328228  -0.0000100000
O     -1.4884030000  -0.6254770000   0.0000810000
O     -3.6746360000   0.6138610000   0.0001090000
H     -2.7810850000   0.0684690000  -0.0013760000
H     -1.5531640000  -1.5982250000  -0.0006690000
H     -4.2211980000   0.5148500000  -0.8035840000
H     -4.2199760000   0.5121090000   0.8042870000
    7
 
Hg     0.3762460000  -0.0687328228  -0.0000100000
O     -1.4884030000  -0.6254770000   0.0000810000
O     -3.6746360000   0.6138610000   0.0001090000
H     -2.7810850000   0.0684690000  -0.0013760000
H     -1.5531640000  -1.5982250000  -0.0006690000
H     -4.2211980000   0.5148500000  -0.8035840000
H     -4.2199760000   0.5121090000   0.8042870000
    7
 
Hg     0.3762460000  -0.0697911772  -0.0000100000
O     -1.4884030000  -0.6254770000   0.0000810000
O     -3.6746360000   0.6138610000   0.0001090000
H     -2.7810850000   0.0684690000  -0.0013760000
H     -1.5531640000  -1.5982250000  -0.0006690000
H     -4.2211980000   0.5148500000  -0.8035840000
H     -4.2199760000   0.5121090000   0.8042870000
    7
 
Hg     0.3762460000  -0.0697911772  -0.0000100000
O     -1.4884030000  -0.6254770000   0.0000810000
O     -3.6746360000   0.6138610000   0.0001090000
H     -2.7810850000   0.0684690000  -0.0013760000
H     -1.5531640000  -1.5982250000  -0.0006690000
H     -4.2211980000   0.5148500000  -0.8035840000
H     -4.2199760000   0.5121090000   0.8042870000
    7
 
Hg     0.3762460000  -0.0692620000   0.0005191772
O     -1.4884030000  -0.6254770000   0.0000810000
O     -3.6746360000   0.6138610000   0.0001090000
H     -2.7810850000   0.0684690000  -0.0013760000
H     -1.5531640000  -1.5982250000  -0.0006690000
H     -4.2211980000   0.5148500000  -0.8035840000
H     -4.2199760000   0.5121090000   0.8042870000
    7
 
Hg     0.3762460000  -0.0692620000   0.0005191772
O     -1.4884030000  -0.6254770000   0.0000810000
O     -3.6746360000   0.6138610000   0.0001090000
H     -2.7810850000   0.0684690000  -0.0013760000
H     -1.5531640000  -1.5982250000  -0.0006690000
H     -4.2211980000   0.5148500000  -0.8035840000
H     -4.2199760000   0.5121090000   0.8042870000
    7
 
Hg     0.3762460000  -0.0692620000  -0.0005391772
O     -1.4884030000  -0.6254770000   0.0000810000
O     -3.6746360000   0.6138610000   0.0001090000
H     -2.7810850000   0.0684690000  -0.0013760000
H     -1.5531640000  -1.5982250000  -0.0006690000
H     -4.2211980000   0.5148500000  -0.8035840000
H     -4.2199760000   0.5121090000   0.8042870000
    7
 
Hg     0.3762460000  -0.0692620000  -0.0005391772
O     -1.4884030000  -0.6254770000   0.0000810000
O     -3.6746360000   0.6138610000   0.0001090000
H     -2.7810850000   0.0684690000  -0.0013760000
H     -1.5531640000  -1.5982250000  -0.0006690000
H     -4.2211980000   0.5148500000  -0.8035840000
H     -4.2199760000   0.5121090000   0.8042870000
    7
 
Hg     0.3762460000  -0.0692620000  -0.0000100000
O     -1.4878738228  -0.6254770000   0.0000810000
O     -3.6746360000   0.6138610000   0.0001090000
H     -2.7810850000   0.0684690000  -0.0013760000
H     -1.5531640000  -1.5982250000  -0.0006690000
H     -4.2211980000   0.5148500000  -0.8035840000
H     -4.2199760000   0.5121090000   0.8042870000
    7
 
Hg     0.3762460000  -0.0692620000  -0.0000100000
O     -1.4878738228  -0.6254770000   0.0000810000
O     -3.6746360000   0.6138610000   0.0001090000
H     -2.7810850000   0.0684690000  -0.0013760000
H     -1.5531640000  -1.5982250000  -0.0006690000
H     -4.2211980000   0.5148500000  -0.8035840000
H     -4.2199760000   0.5121090000   0.8042870000
    7
 
Hg     0.3762460000  -0.0692620000  -0.0000100000
O     -1.4889321772  -0.6254770000   0.0000810000
O     -3.6746360000   0.6138610000   0.0001090000
H     -2.7810850000   0.0684690000  -0.0013760000
H     -1.5531640000  -1.5982250000  -0.0006690000
H     -4.2211980000   0.5148500000  -0.8035840000
H     -4.2199760000   0.5121090000   0.8042870000
    7
 
Hg     0.3762460000  -0.0692620000  -0.0000100000
O     -1.4889321772  -0.6254770000   0.0000810000
O     -3.6746360000   0.6138610000   0.0001090000
H     -2.7810850000   0.0684690000  -0.0013760000
H     -1.5531640000  -1.5982250000  -0.0006690000
H     -4.2211980000   0.5148500000  -0.8035840000
H     -4.2199760000   0.5121090000   0.8042870000
    7
 
Hg     0.3762460000  -0.0692620000  -0.0000100000
O     -1.4884030000  -0.6249478228   0.0000810000
O     -3.6746360000   0.6138610000   0.0001090000
H     -2.7810850000   0.0684690000  -0.0013760000
H     -1.5531640000  -1.5982250000  -0.0006690000
H     -4.2211980000   0.5148500000  -0.8035840000
H     -4.2199760000   0.5121090000   0.8042870000
    7
 
Hg     0.3762460000  -0.0692620000  -0.0000100000
O     -1.4884030000  -0.6249478228   0.0000810000
O     -3.6746360000   0.6138610000   0.0001090000
H     -2.7810850000   0.0684690000  -0.0013760000
H     -1.5531640000  -1.5982250000  -0.0006690000
H     -4.2211980000   0.5148500000  -0.8035840000
H     -4.2199760000   0.5121090000   0.8042870000
    7
 
Hg     0.3762460000  -0.0692620000  -0.0000100000
O     -1.4884030000  -0.6260061772   0.0000810000
O     -3.6746360000   0.6138610000   0.0001090000
H     -2.7810850000   0.0684690000  -0.0013760000
H     -1.5531640000  -1.5982250000  -0.0006690000
H     -4.2211980000   0.5148500000  -0.8035840000
H     -4.2199760000   0.5121090000   0.8042870000
    7
 
Hg     0.3762460000  -0.0692620000  -0.0000100000
O     -1.4884030000  -0.6260061772   0.0000810000
O     -3.6746360000   0.6138610000   0.0001090000
H     -2.7810850000   0.0684690000  -0.0013760000
H     -1.5531640000  -1.5982250000  -0.0006690000
H     -4.2211980000   0.5148500000  -0.8035840000
H     -4.2199760000   0.5121090000   0.8042870000
    7
 
Hg     0.3762460000  -0.0692620000  -0.0000100000
O     -1.4884030000  -0.6254770000   0.0006101772
O     -3.6746360000   0.6138610000   0.0001090000
H     -2.7810850000   0.0684690000  -0.0013760000
H     -1.5531640000  -1.5982250000  -0.0006690000
H     -4.2211980000   0.5148500000  -0.8035840000
H     -4.2199760000   0.5121090000   0.8042870000
    7
 
Hg     0.3762460000  -0.0692620000  -0.0000100000
O     -1.4884030000  -0.6254770000   0.0006101772
O     -3.6746360000   0.6138610000   0.0001090000
H     -2.7810850000   0.0684690000  -0.0013760000
H     -1.5531640000  -1.5982250000  -0.0006690000
H     -4.2211980000   0.5148500000  -0.8035840000
H     -4.2199760000   0.5121090000   0.8042870000
    7
 
Hg     0.3762460000  -0.0692620000  -0.0000100000
O     -1.4884030000  -0.6254770000  -0.0004481772
O     -3.6746360000   0.6138610000   0.0001090000
H     -2.7810850000   0.0684690000  -0.0013760000
H     -1.5531640000  -1.5982250000  -0.0006690000
H     -4.2211980000   0.5148500000  -0.8035840000
H     -4.2199760000   0.5121090000   0.8042870000
    7
 
Hg     0.3762460000  -0.0692620000  -0.0000100000
O     -1.4884030000  -0.6254770000  -0.0004481772
O     -3.6746360000   0.6138610000   0.0001090000
H     -2.7810850000   0.0684690000  -0.0013760000
H     -1.5531640000  -1.5982250000  -0.0006690000
H     -4.2211980000   0.5148500000  -0.8035840000
H     -4.2199760000   0.5121090000   0.8042870000
    7
 
Hg     0.3762460000  -0.0692620000  -0.0000100000
O     -1.4884030000  -0.6254770000   0.0000810000
O     -3.6741068228   0.6138610000   0.0001090000
H     -2.7810850000   0.0684690000  -0.0013760000
H     -1.5531640000  -1.5982250000  -0.0006690000
H     -4.2211980000   0.5148500000  -0.8035840000
H     -4.2199760000   0.5121090000   0.8042870000
    7
 
Hg     0.3762460000  -0.0692620000  -0.0000100000
O     -1.4884030000  -0.6254770000   0.0000810000
O     -3.6741068228   0.6138610000   0.0001090000
H     -2.7810850000   0.0684690000  -0.0013760000
H     -1.5531640000  -1.5982250000  -0.0006690000
H     -4.2211980000   0.5148500000  -0.8035840000
H     -4.2199760000   0.5121090000   0.8042870000
    7
 
Hg     0.3762460000  -0.0692620000  -0.0000100000
O     -1.4884030000  -0.6254770000   0.0000810000
O     -3.6751651772   0.6138610000   0.0001090000
H     -2.7810850000   0.0684690000  -0.0013760000
H     -1.5531640000  -1.5982250000  -0.0006690000
H     -4.2211980000   0.5148500000  -0.8035840000
H     -4.2199760000   0.5121090000   0.8042870000
    7
 
Hg     0.3762460000  -0.0692620000  -0.0000100000
O     -1.4884030000  -0.6254770000   0.0000810000
O     -3.6751651772   0.6138610000   0.0001090000
H     -2.7810850000   0.0684690000  -0.0013760000
H     -1.5531640000  -1.5982250000  -0.0006690000
H     -4.2211980000   0.5148500000  -0.8035840000
H     -4.2199760000   0.5121090000   0.8042870000
    7
 
Hg     0.3762460000  -0.0692620000  -0.0000100000
O     -1.4884030000  -0.6254770000   0.0000810000
O     -3.6746360000   0.6143901772   0.0001090000
H     -2.7810850000   0.0684690000  -0.0013760000
H     -1.5531640000  -1.5982250000  -0.0006690000
H     -4.2211980000   0.5148500000  -0.8035840000
H     -4.2199760000   0.5121090000   0.8042870000
    7
 
Hg     0.3762460000  -0.0692620000  -0.0000100000
O     -1.4884030000  -0.6254770000   0.0000810000
O     -3.6746360000   0.6143901772   0.0001090000
H     -2.7810850000   0.0684690000  -0.0013760000
H     -1.5531640000  -1.5982250000  -0.0006690000
H     -4.2211980000   0.5148500000  -0.8035840000
H     -4.2199760000   0.5121090000   0.8042870000
    7
 
Hg     0.3762460000  -0.0692620000  -0.0000100000
O     -1.4884030000  -0.6254770000   0.0000810000
O     -3.6746360000   0.6133318228   0.0001090000
H     -2.7810850000   0.0684690000  -0.0013760000
H     -1.5531640000  -1.5982250000  -0.0006690000
H     -4.2211980000   0.5148500000  -0.8035840000
H     -4.2199760000   0.5121090000   0.8042870000
    7
 
Hg     0.3762460000  -0.0692620000  -0.0000100000
O     -1.4884030000  -0.6254770000   0.0000810000
O     -3.6746360000   0.6133318228   0.0001090000
H     -2.7810850000   0.0684690000  -0.0013760000
H     -1.5531640000  -1.5982250000  -0.0006690000
H     -4.2211980000   0.5148500000  -0.8035840000
H     -4.2199760000   0.5121090000   0.8042870000
    7
 
Hg     0.3762460000  -0.0692620000  -0.0000100000
O     -1.4884030000  -0.6254770000   0.0000810000
O     -3.6746360000   0.6138610000   0.0006381772
H     -2.7810850000   0.0684690000  -0.0013760000
H     -1.5531640000  -1.5982250000  -0.0006690000
H     -4.2211980000   0.5148500000  -0.8035840000
H     -4.2199760000   0.5121090000   0.8042870000
    7
 
Hg     0.3762460000  -0.0692620000  -0.0000100000
O     -1.4884030000  -0.6254770000   0.0000810000
O     -3.6746360000   0.6138610000   0.0006381772
H     -2.7810850000   0.0684690000  -0.0013760000
H     -1.5531640000  -1.5982250000  -0.0006690000
H     -4.2211980000   0.5148500000  -0.8035840000
H     -4.2199760000   0.5121090000   0.8042870000
    7
 
Hg     0.3762460000  -0.0692620000  -0.0000100000
O     -1.4884030000  -0.6254770000   0.0000810000
O     -3.6746360000   0.6138610000  -0.0004201772
H     -2.7810850000   0.0684690000  -0.0013760000
H     -1.5531640000  -1.5982250000  -0.0006690000
H     -4.2211980000   0.5148500000  -0.8035840000
H     -4.2199760000   0.5121090000   0.8042870000
    7
 
Hg     0.3762460000  -0.0692620000  -0.0000100000
O     -1.4884030000  -0.6254770000   0.0000810000
O     -3.6746360000   0.6138610000  -0.0004201772
H     -2.7810850000   0.0684690000  -0.0013760000
H     -1.5531640000  -1.5982250000  -0.0006690000
H     -4.2211980000   0.5148500000  -0.8035840000
H     -4.2199760000   0.5121090000   0.8042870000
    7
 
Hg     0.3762460000  -0.0692620000  -0.0000100000
O     -1.4884030000  -0.6254770000   0.0000810000
O     -3.6746360000   0.6138610000   0.0001090000
H     -2.7805558228   0.0684690000  -0.0013760000
H     -1.5531640000  -1.5982250000  -0.0006690000
H     -4.2211980000   0.5148500000  -0.8035840000
H     -4.2199760000   0.5121090000   0.8042870000
    7
 
Hg     0.3762460000  -0.0692620000  -0.0000100000
O     -1.4884030000  -0.6254770000   0.0000810000
O     -3.6746360000   0.6138610000   0.0001090000
H     -2.7805558228   0.0684690000  -0.0013760000
H     -1.5531640000  -1.5982250000  -0.0006690000
H     -4.2211980000   0.5148500000  -0.8035840000
H     -4.2199760000   0.5121090000   0.8042870000
    7
 
Hg     0.3762460000  -0.0692620000  -0.0000100000
O     -1.4884030000  -0.6254770000   0.0000810000
O     -3.6746360000   0.6138610000   0.0001090000
H     -2.7816141772   0.0684690000  -0.0013760000
H     -1.5531640000  -1.5982250000  -0.0006690000
H     -4.2211980000   0.5148500000  -0.8035840000
H     -4.2199760000   0.5121090000   0.8042870000
    7
 
Hg     0.3762460000  -0.0692620000  -0.0000100000
O     -1.4884030000  -0.6254770000   0.0000810000
O     -3.6746360000   0.6138610000   0.0001090000
H     -2.7816141772   0.0684690000  -0.0013760000
H     -1.5531640000  -1.5982250000  -0.0006690000
H     -4.2211980000   0.5148500000  -0.8035840000
H     -4.2199760000   0.5121090000   0.8042870000
    7
 
Hg     0.3762460000  -0.0692620000  -0.0000100000
O     -1.4884030000  -0.6254770000   0.0000810000
O     -3.6746360000   0.6138610000   0.0001090000
H     -2.7810850000   0.0689981772  -0.0013760000
H     -1.5531640000  -1.5982250000  -0.0006690000
H     -4.2211980000   0.5148500000  -0.8035840000
H     -4.2199760000   0.5121090000   0.8042870000
    7
 
Hg     0.3762460000  -0.0692620000  -0.0000100000
O     -1.4884030000  -0.6254770000   0.0000810000
O     -3.6746360000   0.6138610000   0.0001090000
H     -2.7810850000   0.0689981772  -0.0013760000
H     -1.5531640000  -1.5982250000  -0.0006690000
H     -4.2211980000   0.5148500000  -0.8035840000
H     -4.2199760000   0.5121090000   0.8042870000
    7
 
Hg     0.3762460000  -0.0692620000  -0.0000100000
O     -1.4884030000  -0.6254770000   0.0000810000
O     -3.6746360000   0.6138610000   0.0001090000
H     -2.7810850000   0.0679398228  -0.0013760000
H     -1.5531640000  -1.5982250000  -0.0006690000
H     -4.2211980000   0.5148500000  -0.8035840000
H     -4.2199760000   0.5121090000   0.8042870000
    7
 
Hg     0.3762460000  -0.0692620000  -0.0000100000
O     -1.4884030000  -0.6254770000   0.0000810000
O     -3.6746360000   0.6138610000   0.0001090000
H     -2.7810850000   0.0679398228  -0.0013760000
H     -1.5531640000  -1.5982250000  -0.0006690000
H     -4.2211980000   0.5148500000  -0.8035840000
H     -4.2199760000   0.5121090000   0.8042870000
    7
 
Hg     0.3762460000  -0.0692620000  -0.0000100000
O     -1.4884030000  -0.6254770000   0.0000810000
O     -3.6746360000   0.6138610000   0.0001090000
H     -2.7810850000   0.0684690000  -0.0008468228
H     -1.5531640000  -1.5982250000  -0.0006690000
H     -4.2211980000   0.5148500000  -0.8035840000
H     -4.2199760000   0.5121090000   0.8042870000
    7
 
Hg     0.3762460000  -0.0692620000  -0.0000100000
O     -1.4884030000  -0.6254770000   0.0000810000
O     -3.6746360000   0.6138610000   0.0001090000
H     -2.7810850000   0.0684690000  -0.0008468228
H     -1.5531640000  -1.5982250000  -0.0006690000
H     -4.2211980000   0.5148500000  -0.8035840000
H     -4.2199760000   0.5121090000   0.8042870000
    7
 
Hg     0.3762460000  -0.0692620000  -0.0000100000
O     -1.4884030000  -0.6254770000   0.0000810000
O     -3.6746360000   0.6138610000   0.0001090000
H     -2.7810850000   0.0684690000  -0.0019051772
H     -1.5531640000  -1.5982250000  -0.0006690000
H     -4.2211980000   0.5148500000  -0.8035840000
H     -4.2199760000   0.5121090000   0.8042870000
    7
 
Hg     0.3762460000  -0.0692620000  -0.0000100000
O     -1.4884030000  -0.6254770000   0.0000810000
O     -3.6746360000   0.6138610000   0.0001090000
H     -2.7810850000   0.0684690000  -0.0019051772
H     -1.5531640000  -1.5982250000  -0.0006690000
H     -4.2211980000   0.5148500000  -0.8035840000
H     -4.2199760000   0.5121090000   0.8042870000
    7
 
Hg     0.3762460000  -0.0692620000  -0.0000100000
O     -1.4884030000  -0.6254770000   0.0000810000
O     -3.6746360000   0.6138610000   0.0001090000
H     -2.7810850000   0.0684690000  -0.0013760000
H     -1.5526348228  -1.5982250000  -0.0006690000
H     -4.2211980000   0.5148500000  -0.8035840000
H     -4.2199760000   0.5121090000   0.8042870000
    7
 
Hg     0.3762460000  -0.0692620000  -0.0000100000
O     -1.4884030000  -0.6254770000   0.0000810000
O     -3.6746360000   0.6138610000   0.0001090000
H     -2.7810850000   0.0684690000  -0.0013760000
H     -1.5526348228  -1.5982250000  -0.0006690000
H     -4.2211980000   0.5148500000  -0.8035840000
H     -4.2199760000   0.5121090000   0.8042870000
    7
 
Hg     0.3762460000  -0.0692620000  -0.0000100000
O     -1.4884030000  -0.6254770000   0.0000810000
O     -3.6746360000   0.6138610000   0.0001090000
H     -2.7810850000   0.0684690000  -0.0013760000
H     -1.5536931772  -1.5982250000  -0.0006690000
H     -4.2211980000   0.5148500000  -0.8035840000
H     -4.2199760000   0.5121090000   0.8042870000
    7
 
Hg     0.3762460000  -0.0692620000  -0.0000100000
O     -1.4884030000  -0.6254770000   0.0000810000
O     -3.6746360000   0.6138610000   0.0001090000
H     -2.7810850000   0.0684690000  -0.0013760000
H     -1.5536931772  -1.5982250000  -0.0006690000
H     -4.2211980000   0.5148500000  -0.8035840000
H     -4.2199760000   0.5121090000   0.8042870000
    7
 
Hg     0.3762460000  -0.0692620000  -0.0000100000
O     -1.4884030000  -0.6254770000   0.0000810000
O     -3.6746360000   0.6138610000   0.0001090000
H     -2.7810850000   0.0684690000  -0.0013760000
H     -1.5531640000  -1.5976958228  -0.0006690000
H     -4.2211980000   0.5148500000  -0.8035840000
H     -4.2199760000   0.5121090000   0.8042870000
    7
 
Hg     0.3762460000  -0.0692620000  -0.0000100000
O     -1.4884030000  -0.6254770000   0.0000810000
O     -3.6746360000   0.6138610000   0.0001090000
H     -2.7810850000   0.0684690000  -0.0013760000
H     -1.5531640000  -1.5976958228  -0.0006690000
H     -4.2211980000   0.5148500000  -0.8035840000
H     -4.2199760000   0.5121090000   0.8042870000
    7
 
Hg     0.3762460000  -0.0692620000  -0.0000100000
O     -1.4884030000  -0.6254770000   0.0000810000
O     -3.6746360000   0.6138610000   0.0001090000
H     -2.7810850000   0.0684690000  -0.0013760000
H     -1.5531640000  -1.5987541772  -0.0006690000
H     -4.2211980000   0.5148500000  -0.8035840000
H     -4.2199760000   0.5121090000   0.8042870000
    7
 
Hg     0.3762460000  -0.0692620000  -0.0000100000
O     -1.4884030000  -0.6254770000   0.0000810000
O     -3.6746360000   0.6138610000   0.0001090000
H     -2.7810850000   0.0684690000  -0.0013760000
H     -1.5531640000  -1.5987541772  -0.0006690000
H     -4.2211980000   0.5148500000  -0.8035840000
H     -4.2199760000   0.5121090000   0.8042870000
    7
 
Hg     0.3762460000  -0.0692620000  -0.0000100000
O     -1.4884030000  -0.6254770000   0.0000810000
O     -3.6746360000   0.6138610000   0.0001090000
H     -2.7810850000   0.0684690000  -0.0013760000
H     -1.5531640000  -1.5982250000  -0.0001398228
H     -4.2211980000   0.5148500000  -0.8035840000
H     -4.2199760000   0.5121090000   0.8042870000
    7
 
Hg     0.3762460000  -0.0692620000  -0.0000100000
O     -1.4884030000  -0.6254770000   0.0000810000
O     -3.6746360000   0.6138610000   0.0001090000
H     -2.7810850000   0.0684690000  -0.0013760000
H     -1.5531640000  -1.5982250000  -0.0001398228
H     -4.2211980000   0.5148500000  -0.8035840000
H     -4.2199760000   0.5121090000   0.8042870000
    7
 
Hg     0.3762460000  -0.0692620000  -0.0000100000
O     -1.4884030000  -0.6254770000   0.0000810000
O     -3.6746360000   0.6138610000   0.0001090000
H     -2.7810850000   0.0684690000  -0.0013760000
H     -1.5531640000  -1.5982250000  -0.0011981772
H     -4.2211980000   0.5148500000  -0.8035840000
H     -4.2199760000   0.5121090000   0.8042870000
    7
 
Hg     0.3762460000  -0.0692620000  -0.0000100000
O     -1.4884030000  -0.6254770000   0.0000810000
O     -3.6746360000   0.6138610000   0.0001090000
H     -2.7810850000   0.0684690000  -0.0013760000
H     -1.5531640000  -1.5982250000  -0.0011981772
H     -4.2211980000   0.5148500000  -0.8035840000
H     -4.2199760000   0.5121090000   0.8042870000
    7
 
Hg     0.3762460000  -0.0692620000  -0.0000100000
O     -1.4884030000  -0.6254770000   0.0000810000
O     -3.6746360000   0.6138610000   0.0001090000
H     -2.7810850000   0.0684690000  -0.0013760000
H     -1.5531640000  -1.5982250000  -0.0006690000
H     -4.2206688228   0.5148500000  -0.8035840000
H     -4.2199760000   0.5121090000   0.8042870000
    7
 
Hg     0.3762460000  -0.0692620000  -0.0000100000
O     -1.4884030000  -0.6254770000   0.0000810000
O     -3.6746360000   0.6138610000   0.0001090000
H     -2.7810850000   0.0684690000  -0.0013760000
H     -1.5531640000  -1.5982250000  -0.0006690000
H     -4.2206688228   0.5148500000  -0.8035840000
H     -4.2199760000   0.5121090000   0.8042870000
    7
 
Hg     0.3762460000  -0.0692620000  -0.0000100000
O     -1.4884030000  -0.6254770000   0.0000810000
O     -3.6746360000   0.6138610000   0.0001090000
H     -2.7810850000   0.0684690000  -0.0013760000
H     -1.5531640000  -1.5982250000  -0.0006690000
H     -4.2217271772   0.5148500000  -0.8035840000
H     -4.2199760000   0.5121090000   0.8042870000
    7
 
Hg     0.3762460000  -0.0692620000  -0.0000100000
O     -1.4884030000  -0.6254770000   0.0000810000
O     -3.6746360000   0.6138610000   0.0001090000
H     -2.7810850000   0.0684690000  -0.0013760000
H     -1.5531640000  -1.5982250000  -0.0006690000
H     -4.2217271772   0.5148500000  -0.8035840000
H     -4.2199760000   0.5121090000   0.8042870000
    7
 
Hg     0.3762460000  -0.0692620000  -0.0000100000
O     -1.4884030000  -0.6254770000   0.0000810000
O     -3.6746360000   0.6138610000   0.0001090000
H     -2.7810850000   0.0684690000  -0.0013760000
H     -1.5531640000  -1.5982250000  -0.0006690000
H     -4.2211980000   0.5153791772  -0.8035840000
H     -4.2199760000   0.5121090000   0.8042870000
    7
 
Hg     0.3762460000  -0.0692620000  -0.0000100000
O     -1.4884030000  -0.6254770000   0.0000810000
O     -3.6746360000   0.6138610000   0.0001090000
H     -2.7810850000   0.0684690000  -0.0013760000
H     -1.5531640000  -1.5982250000  -0.0006690000
H     -4.2211980000   0.5153791772  -0.8035840000
H     -4.2199760000   0.5121090000   0.8042870000
    7
 
Hg     0.3762460000  -0.0692620000  -0.0000100000
O     -1.4884030000  -0.6254770000   0.0000810000
O     -3.6746360000   0.6138610000   0.0001090000
H     -2.7810850000   0.0684690000  -0.0013760000
H     -1.5531640000  -1.5982250000  -0.0006690000
H     -4.2211980000   0.5143208228  -0.8035840000
H     -4.2199760000   0.5121090000   0.8042870000
    7
 
Hg     0.3762460000  -0.0692620000  -0.0000100000
O     -1.4884030000  -0.6254770000   0.0000810000
O     -3.6746360000   0.6138610000   0.0001090000
H     -2.7810850000   0.0684690000  -0.0013760000
H     -1.5531640000  -1.5982250000  -0.0006690000
H     -4.2211980000   0.5143208228  -0.8035840000
H     -4.2199760000   0.5121090000   0.8042870000
    7
 
Hg     0.3762460000  -0.0692620000  -0.0000100000
O     -1.4884030000  -0.6254770000   0.0000810000
O     -3.6746360000   0.6138610000   0.0001090000
H     -2.7810850000   0.0684690000  -0.0013760000
H     -1.5531640000  -1.5982250000  -0.0006690000
H     -4.2211980000   0.5148500000  -0.8030548228
H     -4.2199760000   0.5121090000   0.8042870000
    7
 
Hg     0.3762460000  -0.0692620000  -0.0000100000
O     -1.4884030000  -0.6254770000   0.0000810000
O     -3.6746360000   0.6138610000   0.0001090000
H     -2.7810850000   0.0684690000  -0.0013760000
H     -1.5531640000  -1.5982250000  -0.0006690000
H     -4.2211980000   0.5148500000  -0.8030548228
H     -4.2199760000   0.5121090000   0.8042870000
    7
 
Hg     0.3762460000  -0.0692620000  -0.0000100000
O     -1.4884030000  -0.6254770000   0.0000810000
O     -3.6746360000   0.6138610000   0.0001090000
H     -2.7810850000   0.0684690000  -0.0013760000
H     -1.5531640000  -1.5982250000  -0.0006690000
H     -4.2211980000   0.5148500000  -0.8041131772
H     -4.2199760000   0.5121090000   0.8042870000
    7
 
Hg     0.3762460000  -0.0692620000  -0.0000100000
O     -1.4884030000  -0.6254770000   0.0000810000
O     -3.6746360000   0.6138610000   0.0001090000
H     -2.7810850000   0.0684690000  -0.0013760000
H     -1.5531640000  -1.5982250000  -0.0006690000
H     -4.2211980000   0.5148500000  -0.8041131772
H     -4.2199760000   0.5121090000   0.8042870000
    7
 
Hg     0.3762460000  -0.0692620000  -0.0000100000
O     -1.4884030000  -0.6254770000   0.0000810000
O     -3.6746360000   0.6138610000   0.0001090000
H     -2.7810850000   0.0684690000  -0.0013760000
H     -1.5531640000  -1.5982250000  -0.0006690000
H     -4.2211980000   0.5148500000  -0.8035840000
H     -4.2194468228   0.5121090000   0.8042870000
    7
 
Hg     0.3762460000  -0.0692620000  -0.0000100000
O     -1.4884030000  -0.6254770000   0.0000810000
O     -3.6746360000   0.6138610000   0.0001090000
H     -2.7810850000   0.0684690000  -0.0013760000
H     -1.5531640000  -1.5982250000  -0.0006690000
H     -4.2211980000   0.5148500000  -0.8035840000
H     -4.2194468228   0.5121090000   0.8042870000
    7
 
Hg     0.3762460000  -0.0692620000  -0.0000100000
O     -1.4884030000  -0.6254770000   0.0000810000
O     -3.6746360000   0.6138610000   0.0001090000
H     -2.7810850000   0.0684690000  -0.0013760000
H     -1.5531640000  -1.5982250000  -0.0006690000
H     -4.2211980000   0.5148500000  -0.8035840000
H     -4.2205051772   0.5121090000   0.8042870000
    7
 
Hg     0.3762460000  -0.0692620000  -0.0000100000
O     -1.4884030000  -0.6254770000   0.0000810000
O     -3.6746360000   0.6138610000   0.0001090000
H     -2.7810850000   0.0684690000  -0.0013760000
H     -1.5531640000  -1.5982250000  -0.0006690000
H     -4.2211980000   0.5148500000  -0.8035840000
H     -4.2205051772   0.5121090000   0.8042870000
    7
 
Hg     0.3762460000  -0.0692620000  -0.0000100000
O     -1.4884030000  -0.6254770000   0.0000810000
O     -3.6746360000   0.6138610000   0.0001090000
H     -2.7810850000   0.0684690000  -0.0013760000
H     -1.5531640000  -1.5982250000  -0.0006690000
H     -4.2211980000   0.5148500000  -0.8035840000
H     -4.2199760000   0.5126381772   0.8042870000
    7
 
Hg     0.3762460000  -0.0692620000  -0.0000100000
O     -1.4884030000  -0.6254770000   0.0000810000
O     -3.6746360000   0.6138610000   0.0001090000
H     -2.7810850000   0.0684690000  -0.0013760000
H     -1.5531640000  -1.5982250000  -0.0006690000
H     -4.2211980000   0.5148500000  -0.8035840000
H     -4.2199760000   0.5126381772   0.8042870000
    7
 
Hg     0.3762460000  -0.0692620000  -0.0000100000
O     -1.4884030000  -0.6254770000   0.0000810000
O     -3.6746360000   0.6138610000   0.0001090000
H     -2.7810850000   0.0684690000  -0.0013760000
H     -1.5531640000  -1.5982250000  -0.0006690000
H     -4.2211980000   0.5148500000  -0.8035840000
H     -4.2199760000   0.5115798228   0.8042870000
    7
 
Hg     0.3762460000  -0.0692620000  -0.0000100000
O     -1.4884030000  -0.6254770000   0.0000810000
O     -3.6746360000   0.6138610000   0.0001090000
H     -2.7810850000   0.0684690000  -0.0013760000
H     -1.5531640000  -1.5982250000  -0.0006690000
H     -4.2211980000   0.5148500000  -0.8035840000
H     -4.2199760000   0.5115798228   0.8042870000
    7
 
Hg     0.3762460000  -0.0692620000  -0.0000100000
O     -1.4884030000  -0.6254770000   0.0000810000
O     -3.6746360000   0.6138610000   0.0001090000
H     -2.7810850000   0.0684690000  -0.0013760000
H     -1.5531640000  -1.5982250000  -0.0006690000
H     -4.2211980000   0.5148500000  -0.8035840000
H     -4.2199760000   0.5121090000   0.8048161772
    7
 
Hg     0.3762460000  -0.0692620000  -0.0000100000
O     -1.4884030000  -0.6254770000   0.0000810000
O     -3.6746360000   0.6138610000   0.0001090000
H     -2.7810850000   0.0684690000  -0.0013760000
H     -1.5531640000  -1.5982250000  -0.0006690000
H     -4.2211980000   0.5148500000  -0.8035840000
H     -4.2199760000   0.5121090000   0.8048161772
    7
 
Hg     0.3762460000  -0.0692620000  -0.0000100000
O     -1.4884030000  -0.6254770000   0.0000810000
O     -3.6746360000   0.6138610000   0.0001090000
H     -2.7810850000   0.0684690000  -0.0013760000
H     -1.5531640000  -1.5982250000  -0.0006690000
H     -4.2211980000   0.5148500000  -0.8035840000
H     -4.2199760000   0.5121090000   0.8037578228
    7
 
Hg     0.3762460000  -0.0692620000  -0.0000100000
O     -1.4884030000  -0.6254770000   0.0000810000
O     -3.6746360000   0.6138610000   0.0001090000
H     -2.7810850000   0.0684690000  -0.0013760000
H     -1.5531640000  -1.5982250000  -0.0006690000
H     -4.2211980000   0.5148500000  -0.8035840000
H     -4.2199760000   0.5121090000   0.8037578228
    7
 
Hg     0.3762460000  -0.0692620000  -0.0000100000
O     -1.4884030000  -0.6254770000   0.0000810000
O     -3.6746360000   0.6138610000   0.0001090000
H     -2.7810850000   0.0684690000  -0.0013760000
H     -1.5531640000  -1.5982250000  -0.0006690000
H     -4.2211980000   0.5148500000  -0.8035840000
H     -4.2199760000   0.5121090000   0.8042870000
    7
 
Hg     0.3762460000  -0.0692620000  -0.0000100000
O     -1.4884030000  -0.6254770000   0.0000810000
O     -3.6746360000   0.6138610000   0.0001090000
H     -2.7810850000   0.0684690000  -0.0013760000
H     -1.5531640000  -1.5982250000  -0.0006690000
H     -4.2211980000   0.5148500000  -0.8035840000
H     -4.2199760000   0.5121090000   0.8042870000
    7
 
Hg     0.2125415692   0.0302776555 363.3066015083
O     -1.5843140879  -0.8662475696 -95.8890250250
O     -3.6211185306   0.6354622709  28.3506870027
H     -2.8668704457   0.0380049651 -23.3825204554
H     -1.3745362290  -1.6334136866-352.9104929502
H    -28.4181367120  37.1262747729  39.5554544283
H     20.0902184362 -35.9140334079  40.9681334916
    7
 
Hg     0.2125415692   0.0302776555 363.3066015083
O     -1.5843140879  -0.8662475696 -95.8890250250
O     -3.6211185306   0.6354622709  28.3506870027
H     -2.8668704457   0.0380049651 -23.3825204554
H     -1.3745362290  -1.6334136866-352.9104929502
H    -28.4181367120  37.1262747729  39.5554544283
H     20.0902184362 -35.9140334079  40.9681334916
