4
    file 'w1s1.log' at: ---' #p CCSD gen pseudo=Read opt=(MaxCycle=150) freq geom=(nocrowd, newdefi'---
Hg     -0.2441977125     0.0000000019     0.0091503858
O        1.827110473     0.0000000802    -0.0853945852
H       2.3324954116    -0.7945981259     0.1757232431
H       2.3324953515     0.7945983246     0.1757232431
