  13
   W4I
I       -1.3865220000      0.0000000000     -0.0000010000
H        2.1363930000     -0.5351440000     -1.6898400000
O        1.9080040000      0.2675040000     -2.1358060000
H        0.9710300000      0.3290420000     -2.0262320000
H        0.9710310000     -2.0262620000     -0.3290560000
O        1.9080050000     -2.1358250000     -0.2674970000
H        2.1363730000     -1.6898390000      0.5351470000
H        0.9710210000     -0.3290440000      2.0262300000
O        1.9079940000     -0.2675030000      2.1358080000
H        2.1363820000      0.5351460000      1.6898430000
H        0.9710260000      2.0262580000      0.3290560000
O        1.9079990000      2.1358260000      0.2675020000
H        2.1363730000      1.6898450000     -0.5351430000
