  19
   W6I
I        1.6010500000     -0.0003010000     -0.1954460000
H       -2.7798290000      0.7559340000     -1.1214610000
O       -3.2352720000      0.0007650000     -0.7767490000
H       -2.7802920000     -0.7546520000     -1.1215260000
H       -0.5778750000     -1.7604420000     -1.5170700000
O       -1.3651730000     -2.2784250000     -1.4437950000
H       -1.2814900000     -2.7090580000     -0.6063310000
H       -0.8326960000      0.0001060000      1.3047400000
O       -1.6680320000      0.0001560000      1.7516610000
H       -2.3145880000      0.0003670000      1.0574270000
H       -1.1013130000     -2.1982940000      1.8325500000
O       -0.6029230000     -2.9172940000      1.4758970000
H        0.2327370000     -2.5378240000      1.2524590000
H       -1.2801860000      2.7096310000     -0.6061350000
O       -1.3640700000      2.2791250000     -1.4436460000
H       -0.5770230000      1.7607670000     -1.5169740000
H       -1.1003920000      2.1986570000      1.8327820000
O       -0.6015980000      2.9173440000      1.4760760000
H        0.2338390000      2.5373830000      1.2526290000
