  13
   W4Br                          
Br       1.5412100000     -0.0018230000     -0.0019710000
O       -1.3649170000     -0.0101120000     -2.1653860000
O       -1.3638550000      0.0134760000      2.1656920000
O       -1.3654670000      2.1663330000     -0.0126450000
O       -1.3698470000     -2.1660930000      0.0146030000
H       -1.6426580000     -0.7485230000     -1.6430460000
H       -0.4465330000      0.0768120000     -1.9481710000
H       -1.6401030000      0.7516390000      1.6420950000
H       -0.4454440000     -0.0747860000      1.9495990000
H       -0.4460450000      1.9546760000      0.0764280000
H       -1.6383790000      1.6415950000     -0.7512950000
H       -1.6417580000     -1.6403390000      0.7528790000
H       -0.4503300000     -1.9551010000     -0.0757130000
