  16
   W5Br                             
Br      -1.6965370000     -0.0453120000      0.0309800000
O        0.7543450000     -2.8394720000      0.1154320000
O        0.0878800000      2.9120620000     -0.1576070000
O        1.2681020000     -0.5272350000      2.0026200000
O        1.3426210000     -0.7400580000     -1.9097610000
O        2.5995870000      1.2370770000     -0.0158620000
H        1.1216070000     -2.3617580000     -0.6147850000
H       -0.1157400000     -2.4987680000      0.1828300000
H       -0.4585250000      2.1393830000     -0.2281950000
H       -0.1711410000      3.3099250000      0.6488690000
H        1.3475900000     -1.3915900000      1.6195370000
H        0.4203190000     -0.2431340000      1.7193660000
H        0.4502800000     -0.4569580000     -1.7334060000
H        1.8818940000     -0.1077180000     -1.4383460000
H        2.3266740000      0.7000800000      0.7147450000
H        1.9312870000      1.9003210000     -0.0840630000
