      19
   DOI10.1007/s00894-012-1716-5
H     -0.989332000      2.433335000     -0.952120000
O     -0.979072000      1.483970000     -1.123962000
H     -1.511537000      1.356447000     -1.918413000
H      1.539185000      1.965647000      1.253810000
O      0.712990000      1.472038000      1.322271000
H      0.281780000      1.794070000      2.123072000
H      1.837712000      0.841951000     -1.928857000
O      1.719280000      0.234551000     -1.188611000
H      2.553394000     -0.243445000     -1.106738000
H     -1.837839000     -0.842422000      1.928582000
O     -1.719562000     -0.234764000      1.188518000
H     -2.553627000      0.243415000      1.107187000
H      1.511796000     -1.355711000      1.918403000
O      0.980012000     -1.483523000      1.123544000
H      0.990374000     -2.432953000      0.952064000
H     -0.282440000     -1.794302000     -2.122787000
O     -0.713396000     -1.472263000     -1.321850000
H     -1.539761000     -1.965573000     -1.253323000
Mg    -0.000143000     -0.000045000     -0.000013000
