      19
   DOI10.1007/s00894-012-1716-5
H      3.397022000     -2.365666000      0.475467000
O      2.814285000     -2.041403000     -0.220257000
H      3.252213000     -2.282311000     -1.044179000
H      1.829170000     -0.822763000     -0.055061000
O      1.133982000     -0.108821000      0.054797000
H      1.579467000      0.754271000      0.063367000
H     -0.976854000     -1.574263000      2.346430000
O     -1.504813000     -1.299962000      1.584458000
H     -2.404860000     -1.597286000      1.773335000
H      1.726296000      3.238871000      0.823724000
O      1.380899000      2.760469000      0.057907000
H      1.747493000      3.241821000     -0.696096000
H     -0.319426000      2.366971000      0.028834000
O     -1.125223000      1.798641000      0.014319000
H     -1.893022000      2.370379000      0.130113000
H     -2.229536000     -0.467326000     -2.281750000
O     -1.898575000     -0.957760000     -1.517092000
H     -2.100878000     -1.885343000     -1.698616000
Mg    -0.834294000     -0.182223000      0.028448000
