   16

 Cl                -0.43987600   -1.75591400    0.42884400
 O                  2.53940000   -0.73619700   -0.02831400
 H                  1.73359500   -1.18912000    0.28129100
 H                  2.32513500   -0.54648900   -0.94786900
 O                 -2.45924800    0.49479300   -0.85152100
 H                 -1.70272900    0.69982400   -1.41968900
 H                 -2.19156100   -0.35678500   -0.47205100
 O                  0.29273500    0.42684800   -1.80984500
 H                  0.64888800    1.08620400   -1.19028800
 H                  0.09140400   -0.33313400   -1.23481800
 O                 -1.00208800    1.16510600    1.57646200
 H                 -1.62798500    1.25382200    0.84279800
 H                 -0.77177700    0.22165400    1.51298500
 O                  1.43047000    1.91743300    0.36151300
 H                  0.62084600    1.76895300    0.88216600
 H                  1.94191900    1.10174600    0.46877800

