   13

 Cl                 0.00256000   -0.00893900    1.72806400
 O                  2.03135300    0.18907400   -0.79897000
 H                  1.72646900    0.24430300    0.12180700
 H                  1.56402800   -0.60562200   -1.09782300
 O                 -0.18635000    2.03505600   -0.78641400
 H                  0.60998100    1.57037200   -1.08503200
 H                 -0.24483500    1.72427400    0.13229400
 O                  0.18382700   -2.02689500   -0.80724100
 H                 -0.61381000   -1.55980600   -1.09888200
 H                  0.24539900   -1.72464300    0.11405100
 O                 -2.03348300   -0.18076800   -0.79509600
 H                 -1.72633800   -0.24616800    0.12432700
 H                 -1.56718900    0.61751400   -1.08605500

