   10

 Cl                -1.68734900    0.00140900    0.00021200
 O                  1.02380400    0.06274200   -1.69836300
 H                  0.08149200    0.15007600   -1.46671500
 H                  1.28652800   -0.66151900   -1.11432600
 O                  1.02656500    1.43935200    0.90411600
 H                  1.29037700    1.29471000   -0.01465700
 H                  0.08401100    1.19635300    0.86188500
 O                  1.02176500   -1.50462000    0.79378900
 H                  1.28590800   -0.63811900    1.13113000
 H                  0.07953900   -1.34524200    0.60273700

