      13
   DOI10.1007/s00894-012-1716-5
H      3.698433000     -0.000394000      0.762169000
O      3.100437000     -0.000163000      0.001408000
H      3.699582000     -0.000018000     -0.758449000
H     -3.812312000     -0.026042000      0.761788000
O     -3.212685000     -0.000119000      0.002041000
H     -3.814791000      0.025715000     -0.755747000
H      0.872770000      2.516180000      0.002632000
O      0.824154000      1.551447000      0.000702000
H      1.753499000      1.236173000      0.000671000
H      0.872553000     -2.516097000     -0.002970000
O      0.824008000     -1.551360000     -0.001297000
H      1.753380000     -1.236145000      0.000129000
Ca    -0.865521000      0.000109000     -0.001653000
