      16
   DOI10.1007/s00894-012-1716-5
H      2.981938000      0.000201000     -0.163547000
O      2.226259000      0.000838000     -0.813927000
H      2.653320000      0.001446000     -1.680435000
H      1.003837000      1.170932000     -0.549484000
O      0.104641000      1.538397000     -0.350147000
H      0.190286000      2.498922000     -0.377581000
H      4.705605000      0.761114000      1.181592000
O      4.157546000     -0.000824000      0.965638000
H      4.705052000     -0.763429000      1.180638000
H     -4.424957000      0.757871000      0.611522000
O     -3.831833000     -0.000547000      0.513119000
H     -4.413272000     -0.759290000      0.664484000
H      1.003933000     -1.169853000     -0.551654000
O      0.104658000     -1.537725000     -0.353409000
H      0.189667000     -2.498161000     -0.385480000
Ca    -1.534279000     -0.000043000      0.018988000
