      19
   DOI10.1007/s00894-012-1716-5
H     -2.786509000      3.358292000      0.541570000
O     -2.351747000      2.884858000     -0.175789000
H     -2.724588000      3.264059000     -0.978882000
H     -1.766560000      1.361831000     -0.057307000
O     -1.300419000      0.488185000      0.013343000
H     -1.987586000     -0.197279000      0.038820000
H      1.781548000      1.148019000      2.676141000
O      2.135039000      0.737560000      1.876058000
H      3.086161000      0.696317000      2.040673000
H     -3.053589000     -2.404825000      0.828623000
O     -2.546857000     -2.105353000      0.062482000
H     -3.066335000     -2.418058000     -0.689690000
H     -0.783872000     -2.417689000      0.051192000
O      0.184383000     -2.256500000      0.051504000
H      0.597122000     -3.124548000      0.125600000
H      2.396437000     -0.185162000     -2.642529000
O      2.292811000      0.365949000     -1.855638000
H      2.850340000      1.133499000     -2.038584000
Ca     0.907587000     -0.056602000      0.016434000
