  21
   S27
O        1.3088760000     -1.9486760000      1.6576920000
H        0.9543030000     -1.9257840000      2.5582310000
H        1.3685310000     -1.0129350000      1.3577690000
O        3.8086370000      0.9382530000     -0.9690580000
H        3.8924960000      0.4410180000     -1.7976270000
H        4.5011560000      0.5921920000     -0.3847840000
O       -3.0102680000      1.2979570000      0.1051640000
H       -3.6069750000      1.2497700000      0.8666020000
H       -2.9433650000      0.3687660000     -0.2434150000
O        1.2645860000      0.3919580000      0.1561340000
H        2.1101380000      0.7129690000     -0.2203140000
H        0.6797510000      1.1744420000      0.3240090000
O       -2.7611390000     -1.2680240000     -0.7590480000
H       -1.8008300000     -1.5386930000     -0.7814510000
H       -3.1277570000     -1.5066390000     -1.6229930000
O       -0.1211110000     -1.8510200000     -0.8153640000
H        0.1878140000     -2.3150760000     -0.0108350000
H        0.3361290000     -0.9848350000     -0.7303620000
O       -0.5607400000      2.3804660000      0.6352210000
H       -1.4611540000      2.0020030000      0.4527340000
H       -0.5209600000      3.2154950000      0.1465070000
