  10
   W3S4I
I        0.9737540000      0.0010980000      0.0451980000
H       -2.0594550000     -2.0466010000     -0.1992390000
O       -1.4393870000     -2.7459560000     -0.4355120000
H       -0.6002160000     -2.2627800000     -0.4087260000
H       -2.4478350000     -0.0018860000      1.4597160000
O       -2.4132480000     -0.0025680000      0.4998450000
H       -1.4434330000     -0.0017640000      0.3311870000
H       -2.0639310000      2.0412180000     -0.1995040000
O       -1.4459530000      2.7425050000     -0.4355850000
H       -0.6053790000      2.2617790000     -0.4089030000
