  16
   W5S12I
I       -0.7016760000     -1.1006190000      0.0349170000
H        0.2914350000      2.3473000000      0.5593480000
O        0.8407780000      2.0641160000     -0.1874720000
H        0.6261520000      1.1139300000     -0.2176050000
H       -1.4097070000      1.1590090000      1.4978130000
O       -1.5681960000      2.1149390000      1.4863010000
H       -1.9386720000      2.2300960000      0.5980850000
H        2.8259810000     -1.5850060000     -0.9902070000
O        2.8001850000     -1.4171740000     -0.0453260000
H        1.8419410000     -1.3703640000      0.1284980000
H        2.8306750000      1.7968090000      0.0198740000
O        3.7096280000      1.3978070000      0.0803250000
H        3.5032140000      0.4532510000      0.1211180000
H       -0.9367590000      2.2278090000     -1.3867320000
O       -1.8641340000      1.9595720000     -1.4463600000
H       -1.7915330000      1.0058860000     -1.2805270000
