  16
   W5S13I
I        1.3286330000     -0.7243950000      0.0240510000
H       -3.5493170000     -2.3540470000     -1.2868890000
O       -4.0710560000     -1.9181530000     -0.6117470000
H       -0.8366920000      2.4513970000     -0.8403700000
H       -3.4387400000     -1.2810870000     -0.2274840000
O       -2.1535200000     -0.1574310000      0.4276660000
H       -1.0866150000      0.8782820000      2.1830990000
H        0.8021700000      1.1289380000     -1.5367510000
O        0.6135180000      1.9813990000     -1.9822390000
H        1.3905360000      2.5011600000     -1.7636850000
H       -1.0309830000      2.4268510000      0.6717820000
O       -0.3255470000      1.4686280000      2.2490540000
H        0.3503290000      0.9501660000      1.7766460000
H       -2.1050570000      0.7522350000      0.0796990000
O       -1.5206940000      2.5547800000     -0.1569980000
H       -1.2547970000     -0.4947280000      0.2633650000
