  16
   W5S14I
I        1.8415870000     -0.1555420000     -0.1348290000
H       -2.0224430000     -0.7831370000      0.2020660000
O       -2.5486260000      0.0371680000      0.1512170000
H       -2.0568460000      0.6015000000     -0.4749470000
H       -1.3593920000      1.1136510000      1.5031970000
O       -0.6298680000      1.6969470000      1.7562140000
H        0.1502120000      1.2054820000      1.4501790000
H       -5.2225420000     -0.8614250000     -1.1921810000
O       -5.2622350000     -0.4187680000     -0.3436850000
H       -4.3233890000     -0.2322100000     -0.1489180000
H       -0.0512680000      1.2970800000     -1.2161660000
O       -0.8535610000      1.8489530000     -1.2049440000
H       -0.7748010000      2.2628200000     -0.3337060000
H       -0.0396570000     -1.7122310000      0.1301040000
O       -0.8551660000     -2.1979720000      0.3804570000
H       -0.7083230000     -2.3784090000      1.3122190000
