  16
   W5S21I
I       -1.9816680000     -0.2749190000      0.1594930000
H        0.8130200000     -1.7000920000     -1.7666650000
O        1.0788540000     -1.2962290000     -0.9373210000
H        0.2187550000     -1.0658680000     -0.5178540000
H        3.9859930000     -1.1440050000      0.4505190000
O        3.7057820000     -2.0460100000      0.2381350000
H        2.8014540000     -1.9211800000     -0.0773090000
H        3.7079330000      0.8512200000      1.7283750000
O        4.1637750000      0.8069560000      0.8857380000
H        3.4753550000      1.0795480000      0.2387150000
H       -0.6670090000      1.8181270000      0.1637230000
O       -0.1426630000      2.6258760000     -0.0256040000
H       -0.6292310000      3.0148040000     -0.7561250000
H        1.8355000000      0.4358970000     -1.0571930000
O        2.2007820000      1.3289940000     -0.9394970000
H        1.4343930000      1.8455540000     -0.6309060000
