  16
   W5S2I
I        1.6387440000      0.1542510000     -0.0046810000
H       -2.3587700000      1.1959890000     -1.0911030000
O       -2.9327090000      0.4855120000     -1.4236520000
H       -2.3017210000     -0.2231580000     -1.6382710000
H       -1.1132700000     -2.0089910000     -0.7964170000
O       -0.9725200000     -1.6034600000     -1.6614000000
H       -0.1601410000     -1.0937730000     -1.4969170000
H       -2.3459410000     -0.6044570000      1.5046870000
O       -3.0332300000      0.0725890000      1.4196510000
H       -3.2086630000      0.0887300000      0.4627800000
H       -0.4496220000      1.7567640000      0.2093520000
O       -1.3251410000      2.1738320000      0.2686140000
H       -1.7957890000      1.6142170000      0.9055120000
H       -0.0693880000     -1.2125330000      1.0192510000
O       -0.8149220000     -1.7935930000      1.2980520000
H       -0.4219430000     -2.3671530000      1.9590980000
