  16
   W5S3I
I        1.4393190000     -0.5248970000     -0.0001500000
H        0.9673750000      3.0339060000      0.7668820000
O        0.7011300000      2.8407890000     -0.1352980000
H        0.9877500000      1.9087130000     -0.2363910000
H       -0.7036490000     -0.2847670000      1.4792650000
O       -1.5967370000     -0.0962950000      1.8177310000
H       -2.1499310000     -0.7479550000      1.3565170000
H       -0.7552380000     -0.4713970000     -1.4344120000
O       -1.6674800000     -0.2691630000     -1.7065290000
H       -1.8189300000      0.5957500000     -1.2763690000
H       -2.6897690000     -1.2427010000     -0.6732120000
O       -3.2589400000     -1.6571210000      0.0174490000
H       -4.0808220000     -1.1674540000     -0.0491910000
H       -1.9395740000      1.3629720000      0.6890530000
O       -2.0443760000      1.9851510000     -0.0561010000
H       -1.1699200000      2.4055740000     -0.1122330000
