  16
   W5S8I
I       -1.3140440000     -0.6267420000     -0.1615210000
H        1.6083200000      1.2656940000     -0.1327440000
O        1.5316300000      1.2519960000     -1.0990230000
H        0.8000680000      0.6198850000     -1.2078850000
H        0.1011320000      0.7059790000      1.4742930000
O        0.7866060000      1.3221610000      1.7967050000
H        0.4115310000      2.1686040000      1.5162280000
H        1.9209640000     -0.6109740000      1.6977320000
O        1.9290070000     -1.4559200000      1.2346390000
H        1.0531250000     -1.4699130000      0.8146820000
H       -1.2207850000      2.1514940000     -0.1584770000
O       -0.7102620000      2.9762500000     -0.1556730000
H        0.0388490000      2.7296960000     -0.7155560000
H        3.2544680000     -1.1310620000     -0.2172770000
O        3.7744480000     -0.7411950000     -0.9357620000
H        3.1852420000     -0.0383930000     -1.2374800000
