  16
   W5S9I
I       -1.2965390000     -0.5827360000     -0.1995230000
H        0.8130030000      0.9793080000     -0.3043040000
O        1.3653810000      1.7276470000     -0.0159350000
H        0.6949380000      2.4196580000      0.0809350000
H        1.2710630000     -1.7209130000     -0.3548670000
O        2.1730830000     -1.7812270000     -0.0099570000
H        2.0718000000     -1.3602050000      0.8594860000
H        3.1158270000      1.0586230000     -0.9175510000
O        3.7346040000      0.3758120000     -1.2015630000
H        3.2981720000     -0.4317840000     -0.8873130000
H        0.4498670000     -0.3583240000      1.9299200000
O        1.3428800000     -0.1378070000      2.2359470000
H        1.5334570000      0.6493130000      1.7030990000
H       -1.4404560000      1.9275540000      0.1754590000
O       -1.3031000000      2.8942480000      0.1239090000
H       -1.5938950000      3.0923770000     -0.7693520000
