  19
   W6S16I
I       -1.3400520000     -0.8168620000      0.0462130000
H       -2.4365730000      1.8129600000     -0.2692320000
O       -2.3851520000      2.7642860000     -0.4279090000
H       -1.4306030000      2.9016110000     -0.4627830000
H        1.8319640000      0.5672560000      1.8635660000
O        1.0288120000      1.0799090000      2.0681100000
H        0.3087900000      0.4784420000      1.8238500000
H        2.1718160000      1.4079660000     -1.2498010000
O        2.9547390000      0.8694540000     -1.4699220000
H        2.5783210000     -0.0127560000     -1.5944120000
H        1.6445730000     -2.6000830000     -1.3811380000
O        1.7872390000     -1.7712300000     -0.9193430000
H        0.8805160000     -1.5043630000     -0.6468990000
H        2.9121480000     -1.0963950000      0.7159140000
O        3.3292320000     -0.3137140000      1.0989010000
H        3.4134110000      0.2488110000      0.3085920000
H        0.0206180000      1.3121230000     -0.6646980000
O        0.5768050000      2.0967310000     -0.5151760000
H        0.7943980000      1.9746340000      0.4304590000
