  19
   W6S11I
I        1.4915450000     -0.5920430000     -0.0131980000
H       -2.1286330000     -0.7565980000      1.6083840000
O       -1.6618480000     -1.6093320000      1.5302710000
H       -0.7352080000     -1.3564200000      1.4030520000
H        2.2273290000      2.9824300000      0.8518160000
O        1.9544480000      2.8820980000     -0.0631260000
H        1.9782920000      1.9124800000     -0.1802380000
H       -2.6417520000     -0.1671190000     -1.5297960000
O       -3.0799450000      0.7036440000     -1.4643900000
H       -2.3385810000      1.3048590000     -1.3096950000
H       -0.3243970000      1.1542700000     -0.0657380000
O       -0.8306030000      1.9899540000     -0.0853920000
H       -0.1098700000      2.6347010000     -0.1189150000
H       -2.2618740000      1.4695210000      1.2259940000
O       -3.0218700000      0.8926750000      1.3911020000
H       -3.3332160000      0.7539520000      0.4795230000
H       -1.8227770000     -1.8639470000     -0.3416310000
O       -1.7091530000     -1.7543970000     -1.3046040000
H       -0.7694330000     -1.5269930000     -1.3541430000
