  19
   W6S1I
I        1.4491490000      0.0045350000      0.1753370000
H       -2.4845990000     -0.7749610000      1.0802770000
O       -2.9889630000     -0.0105810000      0.7475610000
H       -2.4888660000      0.7561560000      1.0813000000
H       -0.4141820000      1.5572490000      1.3768780000
O       -1.2020940000      2.1233510000      1.3770460000
H       -1.1305490000      2.5375460000      0.5012670000
H       -0.6990460000     -0.0010350000     -1.1657860000
O       -1.5579920000     -0.0033430000     -1.6284880000
H       -2.1893050000     -0.0068610000     -0.8759240000
H       -1.0691800000      1.9492980000     -1.7055090000
O       -0.5629420000      2.7188820000     -1.3985780000
H        0.2812370000      2.3101210000     -1.1621010000
H       -1.1129510000     -2.5460140000      0.4983260000
O       -1.1887100000     -2.1335510000      1.3745840000
H       -0.4045360000     -1.5623300000      1.3763640000
H       -1.0546100000     -1.9554010000     -1.7081550000
O       -0.5412800000     -2.7199970000     -1.4007670000
H        0.2975730000     -2.3022330000     -1.1606630000
