  19
   W6S21I
I        1.6743190000      0.1335100000     -0.1501420000
H        0.5066850000     -2.2122300000      0.9250720000
O       -0.3069610000     -2.7172490000      1.0655070000
H       -0.7398980000     -2.6170400000      0.2057840000
H       -2.8623010000     -0.8816960000     -1.3572480000
O       -3.7332300000     -0.5069540000     -1.1794240000
H       -3.5348850000      0.1807990000     -0.5216510000
H        0.0342110000      2.0447450000     -0.5135250000
O       -0.5811740000      2.7998240000     -0.4665510000
H       -0.1950310000      3.3395620000      0.2270440000
H       -0.6520550000     -1.8960870000     -2.4067860000
O       -0.9659260000     -1.6032430000     -1.5486340000
H       -0.2597570000     -1.0004900000     -1.2377090000
H       -0.1937890000      0.1503680000      1.7759720000
O       -0.9799690000     -0.1387830000      2.2648590000
H       -1.0057990000     -1.0798250000      2.0318080000
H       -2.3077870000      0.8645930000      1.3435880000
O       -2.8506670000      1.4270720000      0.7639830000
H       -2.1850940000      1.9459360000      0.2872370000
