  19
   W6S27I
I       -0.3861230000     -1.3820190000     -0.0242460000
H       -2.8573140000      2.2829690000     -0.1309610000
O       -2.4664280000      3.1602690000     -0.2500660000
H       -1.5400980000      2.9545970000     -0.4352010000
H       -2.6107680000     -0.1326650000      0.0380510000
O       -3.4078390000      0.3970810000      0.2244340000
H       -3.5009740000      0.3026700000      1.1749250000
H        3.3255290000      0.9006250000      1.1554440000
O        4.0796250000      0.8556060000      0.5564010000
H        3.6560980000      0.6186270000     -0.2829830000
H        0.9323660000      1.0327120000      2.6713270000
O        1.3685010000      0.9437600000      1.8213490000
H        0.9220940000      0.1764910000      1.4068340000
H       -0.1265750000      1.1377680000     -0.6696590000
O        0.2643330000      2.0293720000     -0.6750050000
H        0.6999540000      2.0419840000      0.1897860000
H        1.8255870000      1.0479640000     -1.6430580000
O        2.4002800000      0.2792260000     -1.7685020000
H        1.8308190000     -0.4392600000     -1.4583500000
