  19
   W6S26I
I       -1.5209720000     -0.8459610000     -0.2072590000
H        1.7814720000     -0.6422850000      1.0375440000
O        2.0610070000     -1.0926470000      0.2184600000
H        1.2097480000     -1.3690150000     -0.1518240000
H       -0.0422220000     -0.0696990000      1.9682080000
O        0.7628720000      0.3766110000      2.2739220000
H        0.7475190000      1.1816280000      1.7334450000
H       -2.3797550000      1.5374890000      0.0906730000
O       -2.5117710000      2.5037240000      0.0279130000
H       -2.8556230000      2.6065040000     -0.8624810000
H       -0.4631080000      2.6225370000      0.0360720000
O        0.3691590000      2.1303400000     -0.0207670000
H        0.0413310000      1.2561250000     -0.2997280000
H        2.5833490000      0.4236760000     -0.8220470000
O        2.9320040000      1.2559540000     -1.1827010000
H        2.2566240000      1.8892450000     -0.9123980000
H        4.1611630000     -1.0875540000      0.0562870000
O        4.9969300000     -0.6389330000     -0.1196810000
H        4.6894140000      0.2068790000     -0.4662020000
