  19
   W6S20I
I        0.8081640000     -1.0872450000     -0.1146590000
H        0.8601010000      2.3814920000      1.2251360000
O        1.7668280000      2.1104750000      1.4218530000
H        1.7157930000      1.1514260000      1.2968100000
H        2.4558480000      0.9484570000     -1.3341280000
O        2.9171360000      1.7955650000     -1.3018800000
H        2.6519200000      2.1221330000     -0.4308130000
H       -3.0419150000      0.6775660000     -1.2085390000
O       -3.1553240000      1.6446440000     -1.3552560000
H       -4.0390920000      1.8291040000     -1.0335300000
H       -2.6633190000     -0.8802820000      0.2591010000
O       -2.7057940000     -0.9712760000     -0.7110550000
H       -1.7749280000     -1.1600300000     -0.9144640000
H       -1.2130580000     -0.8948040000      1.8269580000
O       -2.0379410000     -0.4183430000      2.0040340000
H       -1.7941620000      0.4794530000      1.7201800000
H       -1.7019870000      1.9825880000     -0.1387980000
O       -1.0089240000      1.8264040000      0.5250210000
H       -0.4957610000      1.0871140000      0.1472810000
