  19
   W6S2I
I        1.6404740000      0.0002150000     -0.0404360000
H       -0.9384100000     -2.3777090000      0.4937830000
O       -0.7889960000     -2.1561990000      1.4301310000
H        0.0271600000     -1.6343810000      1.3573340000
H       -0.1182460000     -1.5688750000     -1.2889570000
O       -0.9198480000     -2.0998180000     -1.4314150000
H       -1.6178470000     -1.4289730000     -1.4888450000
H        0.0247130000      1.6335020000      1.3575460000
O       -0.7912020000      2.1557710000      1.4304310000
H       -0.9399820000      2.3780380000      0.4941420000
H       -0.1203870000      1.5673130000     -1.2885240000
O       -0.9202890000      2.1008540000     -1.4307010000
H       -1.6202470000      1.4323790000     -1.4905140000
H       -1.9781490000      0.7720570000      1.5650620000
O       -2.5698550000     -0.0008040000      1.4577880000
H       -1.9755770000     -0.7714370000      1.5661850000
H       -3.8200590000     -0.0051240000     -1.3762310000
O       -2.8876210000     -0.0007280000     -1.1562210000
H       -2.8455930000     -0.0007670000     -0.1579810000
