  19
   W6S23I
I       -1.6721280000     -0.3694590000     -0.3383300000
H        0.8018330000     -0.6289070000      2.4536730000
O        0.5937600000     -1.4981230000      2.0951450000
H       -0.2073300000     -1.3215600000      1.5681640000
H       -0.5086180000      1.0774570000      1.4306580000
O        0.1060220000      1.6866060000      1.8811510000
H        0.0481070000      2.4511850000      1.2890510000
H        1.7584550000      1.3141090000      0.8180140000
O        2.3156680000      1.1953110000      0.0328640000
H        2.0615410000      0.3042000000     -0.2678390000
H        3.6971510000     -1.2018910000     -0.9263570000
O        4.5269580000     -0.7165870000     -0.8396240000
H        4.2252560000      0.1147190000     -0.4577800000
H       -0.5669420000      2.1096480000     -0.9229380000
O        0.0543950000      2.8463430000     -0.8209060000
H        0.9089530000      2.3883070000     -0.8073910000
H        0.7703640000     -1.3418240000     -0.8909650000
O        1.6696690000     -1.5136540000     -0.5652510000
H        1.5022150000     -1.6833060000      0.3781360000
