  19
   W6S33I
I       -2.2762080000     -0.3851660000      0.0954520000
H        4.7641550000      0.3810010000      0.6585860000
O        5.3634140000      0.4003350000     -0.0959500000
H        4.8785810000     -0.1461710000     -0.7293770000
H        0.9684890000      0.2612430000     -0.6545510000
O        0.8194440000     -0.0456170000     -1.5606330000
H       -0.0727340000     -0.4207490000     -1.4693950000
H       -0.1734860000      0.4687790000      1.1962250000
O        0.6522610000      0.9918600000      1.2578660000
H        0.4082310000      1.7950250000      0.7668300000
H        2.9039280000     -0.8205420000      2.4352010000
O        3.0037360000     -0.3368200000      1.6138690000
H        2.1763300000      0.1822440000      1.5308910000
H        2.4841000000     -1.1199650000     -1.4847960000
O        3.3064910000     -1.4645910000     -1.1044970000
H        3.1690540000     -1.3252850000     -0.1575920000
H       -0.0939520000      2.1202780000     -1.4425550000
O       -0.5801190000      2.5900210000     -0.7542530000
H       -1.2954800000      1.9564390000     -0.5596410000
