  19
   W6S6I
I        1.3636770000     -0.8207950000     -0.0016240000
H        0.9499100000      1.4655620000     -1.3687310000
O        0.6285270000      2.3798740000     -1.4319200000
H        0.7231320000      2.6690200000     -0.5097050000
H       -4.2545150000     -0.8618320000      0.5608120000
O       -3.4551010000     -1.3101340000      0.8431810000
H       -2.9208320000     -1.3725650000      0.0161370000
H       -1.2025440000      1.9572730000     -1.3410370000
O       -2.0688630000      1.6013510000     -1.0689360000
H       -1.9185800000      1.3963110000     -0.1299440000
H       -0.6861730000      0.0699050000      1.2121740000
O       -1.4417510000      0.5857980000      1.5530150000
H       -2.1744420000     -0.0541690000      1.5378190000
H        1.2773000000      1.5660080000      1.2579530000
O        0.8654780000      2.4197350000      1.4707830000
H       -0.0181350000      2.1437410000      1.7460490000
H       -1.9735550000     -0.1992090000     -1.4703970000
O       -1.9142290000     -1.1736130000     -1.4025160000
H       -0.9889400000     -1.3020080000     -1.1339130000
