  19
   W6S8I
I        1.8699580000     -0.2953980000     -0.0348110000
H       -0.6867020000      1.8042460000      1.4258150000
O       -0.8406260000      0.9665800000      1.8980790000
H       -0.0517680000      0.4655460000      1.6295610000
H        0.8820500000      2.4717870000      0.1005060000
O        0.0478720000      2.9570110000      0.0469380000
H       -0.4013110000      2.4760530000     -0.6737320000
H       -2.0384370000      0.1182360000      0.8452010000
O       -2.5250400000     -0.3650190000      0.1440220000
H       -2.0327480000     -1.2025720000      0.0657160000
H       -0.1296020000      0.6040920000     -1.6055330000
O       -0.9580860000      1.0681840000     -1.8071590000
H       -1.6003500000      0.5886040000     -1.2552700000
H        0.0385360000     -1.9745290000     -0.1614890000
O       -0.7501600000     -2.5473160000     -0.0649860000
H       -0.5914140000     -2.9872730000      0.7734330000
H       -4.3493730000     -0.4045560000      0.0958530000
O       -5.3159670000     -0.3808640000     -0.0346470000
H       -5.4105880000      0.1078520000     -0.8530770000
