   7

 Li                 2.23859900    0.97389500   -0.00003400
 O                 -1.51845500    0.15277700   -0.00001100
 H                 -2.08632300    0.05931900    0.76995000
 H                 -2.08639600    0.05903800   -0.76988200
 O                  1.04320900   -0.34428600    0.00001300
 H                  0.05772100   -0.21597400   -0.00004700
 H                  1.20117000   -1.29199200    0.00006400

