   22

 Li                 1.38563600    0.12155900    0.08855200
 O                  3.17051100   -0.52187900    0.00839700
 H                  4.01514000   -0.30767600    0.41006300
 H                  3.35565400   -1.10848700   -0.73018800
 O                  0.56856300   -1.08738700   -1.14808300
 H                  0.24645100   -1.91794800   -0.77982300
 H                 -0.22225400   -0.68646700   -1.53913100
 O                  0.14159300   -0.10462200    1.62006300
 H                  0.42443300   -0.18253700    2.53508800
 H                 -0.43214300   -0.87895800    1.42504200
 O                  1.04114600    1.88684500   -0.48604100
 H                  0.17619900    2.27304600   -0.28803500
 H                  1.50340900    2.47770800   -1.08273700
 O                 -2.09639000   -0.11336300   -1.26930000
 H                 -2.09170900    0.71391100   -0.75900500
 H                 -2.75581400   -0.02034600   -1.96129400
 O                 -1.46637500   -2.01904700    0.62623700
 H                 -1.98589600   -1.51238200   -0.02082600
 H                 -2.04944900   -2.66791100    1.02723800
 O                 -1.50711500    1.90813900    0.55573700
 H                 -2.07398400    2.52573500    1.02491100
 H                 -1.08240900    1.33814200    1.21695700

