   19

 Li                -0.00028900    0.96651600    0.00172600
 O                 -2.26441500   -1.17682900   -0.03036700
 H                 -1.71292100   -1.29784100    0.75494900
 H                 -2.94313000   -1.85669000   -0.01747000
 O                  0.02215300   -0.43962500    1.42433000
 H                  0.04151500   -0.18810000    2.35201500
 H                  0.86210900   -0.89470800    1.23768000
 O                 -1.79320400    1.56305500    0.03500100
 H                 -2.40686700    0.81639900    0.00256200
 H                 -2.30536600    2.37142200    0.09117100
 O                  2.26486500   -1.17635400    0.02848500
 H                  1.71525200   -1.29693500   -0.75814000
 H                  2.94544900   -1.85431700    0.01518900
 O                 -0.02192100   -0.43596700   -1.42445800
 H                 -0.04226800   -0.18018300   -2.35097400
 H                 -0.86144400   -0.89244100   -1.23921000
 O                  1.79229000    1.56370800   -0.03379300
 H                  2.40628100    0.81730200   -0.00194400
 H                  2.30410400    2.37264200   -0.08459400


