   16

 Li                -0.76752700    0.01452700   -0.09103000
 O                 -2.66988200    0.04051600   -0.08737000
 H                 -3.22371300    0.80798000    0.07632600
 H                 -3.26724400   -0.66943400   -0.33564100
 O                  0.10057100    1.69670900   -0.24522800
 H                  1.05108000    1.53110500   -0.32959400
 H                 -0.08835800    2.53153000   -0.67746200
 O                  0.18404100   -1.26143200   -1.13970500
 H                  1.11806500   -1.00482100   -1.10888600
 H                  0.02941600   -1.68891700   -1.98438500
 O                  2.37352400    0.11714200   -0.13101800
 H                  3.33077700    0.16860600   -0.20093500
 H                  2.16800800   -0.16402500    0.76835100
 O                  0.15204800   -0.58021100    1.58749700
 H                  0.08658100   -1.52308400    1.77016100
 H                 -0.02445600   -0.13432000    2.42174800

