   16

 Li                -0.78532600   -0.00009800   -0.00196700
 O                  0.49625500   -0.98894700   -1.02320000
 H                  1.43275600   -0.79543900   -0.87263600
 H                  0.42843000   -1.43624700   -1.86879500
 O                 -1.93387900   -1.34337700    0.73023400
 H                 -2.75271600   -1.26226200    1.22436600
 H                 -1.65703700   -2.25949600    0.80973000
 O                 -1.94272100    1.33876000   -0.72683800
 H                 -2.76080100    1.25334000   -1.22151900
 H                 -1.66870100    2.25528500   -0.80973000
 O                  2.94195900    0.00141400    0.00137200
 H                  3.52287800    0.58576200   -0.49534900
 H                  3.52249500   -0.58243500    0.49915400
 O                  0.49306300    0.99240300    1.01891700
 H                  0.42096600    1.44074400    1.86361100
 H                  1.43029400    0.79901600    0.87320100

