   13

 Li                 0.99272900   -0.00030400    0.00000400
 O                  2.88458600    0.00014200   -0.00009800
 H                  3.46296800   -0.14133300   -0.75452700
 H                  3.46288700    0.14106000    0.75449300
 O                 -0.19665700    1.42798100   -0.00350700
 H                 -1.14221000    1.21536300   -0.00239300
 H                 -0.10679700    2.38263700   -0.02696000
 O                 -0.19698500   -1.42829400    0.00372000
 H                 -0.10759200   -2.38299900    0.02696600
 H                 -1.14246100   -1.21528500    0.00267400
 O                 -2.61705000    0.00027900   -0.00009000
 H                 -3.19788100   -0.00240900   -0.76769700
 H                 -3.19825400    0.00301500    0.76722600

