   13

 Li                -0.00449300   -0.01115600    0.11083200
 O                 -0.10694600   -1.14114400   -1.43154400
 H                 -0.24497600   -2.08495100   -1.54267400
 H                 -0.02166900   -0.77294400   -2.31496000
 O                  1.62760000   -0.43382600    1.01066700
 H                  1.96011700   -0.16920700    1.87160300
 H                  2.24091400   -1.09445400    0.67913800
 O                 -1.68470000   -0.17201000    1.01265700
 H                 -2.45178900   -0.59708600    0.62098800
 H                 -1.93555500    0.05560600    1.91136100
 O                  0.16654700    1.75471200   -0.60779000
 H                  0.98836500    2.24022200   -0.71642900
 H                 -0.54194800    2.39442600   -0.71344000

