   13

 Mg       -0.832136    0.000044    0.000027
 O        -2.783926   -0.000173    0.000006
 H        -3.368794    0.000383    0.773877
 H        -3.368854   -0.000909   -0.773805
 O         0.444978    1.442201   -0.000073
 H         1.399794    1.191497   -0.000027
 H         0.370246    2.405750   -0.000128
 O         2.715715   -0.000149    0.000033
 H         3.303912   -0.000204   -0.768333
 H         3.303897   -0.000215    0.768421
 O         0.445105   -1.441912    0.000008
 H         0.370517   -2.405493   -0.000109
 H         1.399933   -1.191070   -0.000015

