   10

 Mg       0.913027    0.180001    0.005411
 O       -0.857646    0.762341   -0.002833
 H       -1.125128    1.691865   -0.009461
 H       -1.794254    0.177199   -0.001367
 O       -2.878677   -0.579470    0.000311
 H       -3.442540   -0.644034   -0.781975
 H       -3.447534   -0.633306    0.779797
 O        2.761816   -0.387985   -0.002655
 H        3.321155   -0.555052   -0.780257
 H        3.328025   -0.555781    0.769754

