  21
   S16
O       -1.9137070000      1.2133660000     -0.7696290000
H       -1.1594810000      1.7852840000     -0.4524290000
H       -2.2751110000      1.6596950000     -1.5500290000
O        2.5923610000      1.6532610000      0.0508040000
H        2.6994710000      0.6728950000      0.1779910000
H        3.2036520000      1.8997340000     -0.6584460000
O        0.9527190000     -2.7240760000     -0.1520240000
H        0.0593700000     -2.3157240000     -0.3159770000
H        1.0847240000     -3.3682390000     -0.8627230000
O        0.1262610000      2.7724000000      0.0381820000
H        1.0237440000      2.3441830000      0.0176890000
H        0.0472420000      3.1751500000      0.9155240000
O        2.9792960000     -1.0095620000      0.3993940000
H        3.2788470000     -1.2498440000      1.2884820000
H        2.2431690000     -1.6418190000      0.1815330000
O       -3.2165190000     -0.3728460000      1.1558190000
H       -4.1824740000     -0.3707170000      1.2189880000
H       -2.9681870000      0.3778030000      0.5746210000
O       -1.4625990000     -1.6198870000     -0.6792950000
H       -1.4185030000     -0.6789020000     -0.9461310000
H       -2.0989690000     -1.5907450000      0.0649010000
