  21
   S1
O       -0.9522620000     -1.4462380000      1.1938010000
H       -0.6801080000     -1.7312490000      0.2964220000
H       -1.7336790000     -0.8592310000      1.0453060000
O        0.1715020000     -1.6074860000     -1.4485300000
H        0.2660380000     -2.3195290000     -2.0991120000
H        1.0905200000     -1.3043530000     -1.2088330000
O       -1.0987900000      0.9756380000     -1.5681500000
H       -0.3676140000      1.4591410000     -1.1280300000
H       -0.7327510000      0.0833700000     -1.7410590000
O        1.0934970000      2.0280650000     -0.0500130000
H        1.0138290000      1.5366460000      0.8026700000
H        1.1211140000      2.9712330000      0.1671580000
O        2.4748340000     -0.5096260000     -0.5226780000
H        2.4080770000      0.4297010000     -0.7744580000
H        2.2571310000     -0.4923020000      0.4340640000
O       -2.8189220000      0.4535450000      0.4769630000
H       -2.3147560000      0.7351510000     -0.3323820000
H       -3.7406380000      0.3295050000      0.2091800000
O        1.1076820000      0.0630390000      1.8894720000
H        0.2931990000     -0.5118090000      1.7239860000
H        1.2993010000      0.0182260000      2.8381620000
