  21
   S19
O        0.3727120000      2.6019450000      0.2249000000
H       -0.5121500000      2.1761400000      0.0385870000
H        0.3009330000      3.5167120000     -0.0839700000
O        1.0981800000     -1.6181240000     -1.0126960000
H        1.4828220000     -0.7243040000     -1.1273920000
H        1.4904200000     -1.8975730000     -0.1590370000
O       -3.0069030000     -0.6841500000      1.2615830000
H       -2.7786840000     -1.0889700000      2.1106000000
H       -2.5227080000     -1.1842400000      0.5689000000
O        2.6464000000     -1.2868470000      1.3171990000
H        2.4819260000     -1.1781950000      2.2649400000
H        2.6809980000     -0.3847600000      0.9313270000
O       -1.9697670000      1.3965870000     -0.3375310000
H       -2.4295000000      1.0263980000      0.4446650000
H       -1.8059120000      0.5921090000     -0.8722930000
O        2.3473970000      0.8865520000     -0.4299540000
H        3.0774610000      1.3298360000     -0.8868020000
H        1.6693870000      1.5867540000     -0.2152260000
O       -1.5675010000     -1.3457590000     -1.0480150000
H       -0.5796690000     -1.5090530000     -1.0300510000
H       -1.9194610000     -1.8625020000     -1.7881270000
