  21
   S17
O        1.3376360000      2.5642390000      0.5757300000
H        0.3680940000      2.5715270000      0.3635880000
H        1.4180690000      2.8657720000      1.4918030000
O       -3.0588630000      0.6600810000     -0.2746740000
H       -2.7554520000     -0.2845240000     -0.3072950000
H       -3.7945230000      0.6740310000      0.3549880000
O        3.0553260000      0.7019540000     -0.4235060000
H        2.4348700000      1.3807510000     -0.0518700000
H        3.3399740000      1.0482220000     -1.2819510000
O        2.2995980000     -1.9161070000     -0.4156510000
H        2.5367570000     -0.9523390000     -0.4193080000
H        3.1175980000     -2.3925630000     -0.2128580000
O       -1.3164680000      2.7324930000      0.0012830000
H       -1.9099220000      1.9407560000     -0.0805210000
H       -1.5071380000      3.2839540000     -0.7715960000
O        0.0143980000     -2.8075410000      0.7755190000
H        0.8413550000     -2.4646960000      0.3480500000
H        0.1209470000     -2.6582330000      1.7261670000
O       -2.3601650000     -1.9676870000     -0.2645790000
H       -2.4927780000     -2.4940600000     -1.0662070000
H       -1.4895440000     -2.2580430000      0.1140560000
