  21
   S26
O       -3.3827970000      0.4977280000      0.1056070000
H       -2.7032820000      1.2213700000      0.1152230000
H       -4.0105690000      0.7289750000     -0.5947880000
O        3.6696270000      0.5147680000     -0.5966150000
H        2.8062820000      0.9693700000     -0.6983520000
H        4.3576770000      1.1887240000     -0.6948890000
O        0.9072100000      1.0053110000     -0.2008230000
H        0.6211630000      0.1978940000     -0.6860620000
H        1.2183280000      0.6001190000      0.6460310000
O        0.3529450000     -1.6827550000     -0.7131870000
H        0.5347440000     -2.2174980000     -1.5005150000
H       -0.5998690000     -1.8502190000     -0.4745860000
O       -1.4366660000      2.4115370000      0.0638330000
H       -0.5475610000      1.9776890000     -0.0130920000
H       -1.3764650000      3.0331740000      0.8039170000
O        2.1655560000     -0.8074600000      1.4559180000
H        2.9808090000     -0.5789820000      0.9658280000
H        1.7120320000     -1.4627180000      0.8916330000
O       -2.2562250000     -1.9765130000     -0.0567660000
H       -2.4564800000     -2.4230570000      0.7791370000
H       -2.6940060000     -1.0857660000     -0.0032220000
