  21
   S22
O        2.6543430000     -0.2719150000     -0.1644960000
H        2.4970270000     -0.3691610000      0.7913700000
H        2.0380330000     -0.9255690000     -0.5559600000
O       -3.3228530000      0.4064920000      0.3736800000
H       -2.5416470000      0.9723750000      0.5509680000
H       -4.0953810000      0.9895930000      0.3839930000
O        1.7247580000      2.3145880000     -0.4325660000
H        2.1701500000      1.4314260000     -0.4689860000
H        1.9087560000      2.7592990000     -1.2724440000
O        0.5035070000     -2.1570510000     -0.6056830000
H       -0.2747600000     -1.6915570000     -1.0373530000
H        0.5720200000     -3.0393050000     -0.9996440000
O       -0.6579480000      1.2619290000      0.4720000000
H        0.0833830000      1.8380910000      0.1656770000
H       -0.2420480000      0.6098130000      1.0781700000
O       -1.4030910000     -0.5504090000     -1.5222260000
H       -2.3139050000     -0.6228580000     -1.1768020000
H       -1.0588230000      0.2123700000     -0.9990570000
O        0.5791080000     -0.9166540000      1.8454970000
H        0.4361150000     -1.5948040000      1.1453000000
H        0.1984790000     -1.2655470000      2.6651020000
