  21
   S25
O        3.9169020000      0.3466690000     -0.0218650000
H        4.3204820000     -0.1324660000     -0.7622740000
H        4.0451860000     -0.2193470000      0.7558770000
O        1.1101900000      0.6171680000     -0.2216990000
H        2.0909660000      0.6519320000     -0.2194600000
H        0.8515140000     -0.1022600000     -0.8613860000
O       -0.9675530000      2.4063500000     -0.1266340000
H       -0.1359400000      1.8761480000     -0.1986750000
H       -0.9242380000      3.0760810000     -0.8247160000
O       -3.0204710000      0.5441320000     -0.2105130000
H       -3.7400990000      0.8247520000      0.3731690000
H       -2.3441390000      1.2644780000     -0.1850910000
O        0.2337930000     -1.4788420000     -1.6897890000
H       -0.4901340000     -1.7397690000     -1.0474710000
H       -0.1959820000     -1.3752790000     -2.5514700000
O        0.2480350000     -0.7279510000      2.0741400000
H       -0.0908630000     -0.1223530000      2.7498770000
H        0.5975210000     -0.1605180000      1.3463640000
O       -1.6097720000     -1.8498860000      0.2331120000
H       -2.2086010000     -1.0778400000      0.1127140000
H       -1.0646580000     -1.6246820000      1.0185260000
