  21
   S21
O        3.8014720000      0.0797960000      0.3980640000
H        4.2034810000     -0.1062230000      1.2587320000
H        3.2901320000     -0.7163390000      0.1448490000
O       -0.6272040000      1.5374030000      0.8653720000
H       -1.4964850000      1.5452380000      0.3741530000
H       -0.7166800000      2.1717320000      1.5924570000
O       -2.9798570000      1.2622360000     -0.4260320000
H       -3.0275870000      1.5254130000     -1.3571020000
H       -3.0853030000      0.2729890000     -0.4095940000
O        1.6818690000     -1.3796680000     -0.7708010000
H        1.6867870000     -1.8959840000     -1.5905680000
H        1.5442970000     -0.4222330000     -1.0235240000
O        1.5794030000      1.2967250000     -0.8926970000
H        2.4066860000      1.3227300000     -0.3712320000
H        0.8562930000      1.5433270000     -0.2758700000
O       -2.9099530000     -1.4440340000     -0.2512860000
H       -2.0372870000     -1.5358770000      0.2224470000
H       -3.5612330000     -1.9318390000      0.2738830000
O       -0.5237540000     -1.3359780000      1.0223720000
H        0.2362590000     -1.5370850000      0.4335900000
H       -0.4751750000     -0.3676780000      1.1678420000
