  21
   S24
O       -1.3262420000     -0.4788260000      2.1456910000
H       -2.1629650000     -0.4616100000      2.6331650000
H       -1.4695230000     -1.0674050000      1.3732750000
O       -2.4096070000      0.7404220000     -1.2254320000
H       -1.8188380000      1.2647290000     -0.6083120000
H       -2.3271420000      1.1366290000     -2.1045710000
O        1.8508110000      1.5361610000     -0.4758920000
H        2.4563360000      0.9394400000      0.0327830000
H        2.3495290000      2.3424130000     -0.6743030000
O        1.1580800000     -1.2808080000     -1.1892400000
H        1.1347160000     -0.3303810000     -1.4027830000
H        0.2442010000     -1.5102800000     -0.9116880000
O       -0.7604220000      1.8035610000      0.6070700000
H        0.1777020000      1.7716100000      0.3217780000
H       -0.8633700000      1.1106380000      1.2995470000
O        3.0388850000     -0.6311260000      0.6737910000
H        3.9132790000     -1.0213990000      0.5335910000
H        2.4053820000     -1.1291140000      0.0981510000
O       -1.5554630000     -1.6586970000     -0.4134480000
H       -2.0433570000     -2.4351420000     -0.7261180000
H       -1.9642900000     -0.8556320000     -0.8448250000
