  21
   S2
O        1.1229410000     -0.4820650000     -1.6715140000
H        0.6348450000     -1.0980190000     -1.0377970000
H        1.0893410000     -0.8889050000     -2.5501530000
O       -2.7849630000     -1.3112460000      0.0817840000
H       -2.8816790000     -0.3255500000      0.0311860000
H       -3.3795350000     -1.6086630000      0.7857220000
O        1.2588770000      0.2744720000      1.7450530000
H        2.1240800000      0.2072340000      1.2622860000
H        1.4602400000      0.3817860000      2.6864800000
O       -2.7614790000      1.4156410000     -0.0435980000
H       -1.7971330000      1.6256080000     -0.1685370000
H       -3.2415630000      1.9093310000     -0.7241220000
O       -0.0748360000     -1.8157220000      0.2702810000
H        0.2406030000     -1.2451410000      1.0001070000
H       -1.0570290000     -1.7029640000      0.2323630000
O       -0.0729560000      1.7760630000     -0.3215780000
H        0.2662050000      1.1421240000     -0.9869870000
H        0.3226750000      1.4654770000      0.5192010000
O        3.2909560000      0.0691810000     -0.0531590000
H        2.6707130000     -0.1678750000     -0.7849270000
H        3.7199120000      0.8949570000     -0.3229720000
