  21
   S30
O       -0.6973130000      1.6191740000     -1.2057680000
H        0.1131450000      1.0682370000     -1.1394270000
H       -0.6910690000      2.0987830000     -0.3553280000
O       -0.0284290000     -0.9398570000      1.6782100000
H       -0.8588700000     -1.3298170000      1.3087180000
H       -0.2718230000     -0.0604790000      2.0179140000
O       -2.9032600000      0.0298580000     -1.3282690000
H       -2.1166110000      0.6400050000     -1.3271880000
H       -3.0888510000     -0.1723750000     -2.2567280000
O        1.5376440000      0.2476500000     -0.1707400000
H        2.3926530000     -0.1528530000     -0.4292220000
H        1.0621160000     -0.3989050000      0.4163610000
O        3.9601490000     -1.0578590000     -0.9340540000
H        4.3327910000     -1.6555360000     -0.2675270000
H        3.8786700000     -1.5825010000     -1.7454000000
O       -2.3240260000     -1.9235030000      0.4897130000
H       -3.1094260000     -2.0694350000      1.0368530000
H       -2.5895420000     -1.2670840000     -0.2051390000
O        0.3468560000      2.0780640000      1.4700540000
H        1.0843650000      1.6357170000      0.9895390000
H        0.7294840000      2.8180230000      1.9634050000
