  21
   S38
O       -0.0861920000      2.7570390000     -0.2553220000
H        0.0074290000      3.5070410000      0.3495220000
H        0.7087650000      2.1897490000     -0.1338590000
O       -3.2544390000     -1.0567180000     -1.3720760000
H       -3.9353580000     -0.7276520000     -1.9766810000
H       -3.6710010000     -1.1172900000     -0.4821560000
O       -1.3557350000      0.3223190000      0.1141810000
H       -1.8461560000     -0.0247830000     -0.6659420000
H       -1.2252810000      1.2879700000     -0.0257540000
O        3.4634160000     -0.8858510000     -1.3347260000
H        3.2547750000     -1.6166580000     -1.9346930000
H        2.6235230000     -0.3943380000     -1.1840440000
O       -3.6179630000     -0.7169630000      1.3489350000
H       -2.7493260000     -0.2685530000      1.2285710000
H       -3.4888840000     -1.3946370000      2.0285370000
O        3.4207650000     -0.8758740000      1.4263470000
H        4.1809960000     -0.4872810000      1.8830050000
H        3.7138330000     -1.0687820000      0.5061590000
O        1.4250960000      0.4459190000      0.0140320000
H        1.9563580000      0.1044710000      0.7688720000
H        0.5107550000      0.0917720000      0.1074910000
