  21
   S31
O        3.4009780000      0.3230020000     -0.2345950000
H        3.5630050000      0.6734490000     -1.1234560000
H        3.0961710000     -0.6174250000     -0.3632100000
O       -1.9012610000     -0.1274830000     -0.9692140000
H       -1.5968200000      0.8063880000     -0.9535010000
H       -2.7690630000     -0.1515290000     -0.5191840000
O        2.2494890000     -2.1063260000     -0.4908820000
H        1.3576350000     -1.8912750000     -0.0928220000
H        2.5791240000     -2.8850810000     -0.0192690000
O       -0.6332390000      2.3745730000     -0.6411250000
H        0.0643190000      2.1534230000      0.0168810000
H       -1.0362670000      3.2054190000     -0.3511010000
O        1.3046480000      1.3518750000      1.1073380000
H        2.1217490000      1.0581740000      0.6113010000
H        1.6120200000      1.7192350000      1.9495190000
O       -4.3652970000     -0.6382340000      0.3898130000
H       -4.1149130000     -1.2533150000      1.0969390000
H       -4.9376630000     -1.1441230000     -0.2075690000
O       -0.0025240000     -1.2216230000      0.6951280000
H       -0.7048630000     -0.9408290000      0.0523680000
H        0.3432160000     -0.3787810000      1.0514060000
