  21
   S6
O       -2.1333440000     -1.3511050000     -0.0133220000
H       -1.4211430000     -1.3151640000     -0.7171740000
H       -2.7367930000     -2.0696350000     -0.2550450000
O        0.0138520000     -0.6420890000      1.7984550000
H       -0.7660090000     -1.1107880000      1.4409820000
H        0.7926210000     -1.0908810000      1.4111300000
O       -0.0566070000     -0.8767760000     -1.6417400000
H        0.7581740000     -1.2626210000     -1.2596860000
H       -0.0105730000      0.0615650000     -1.3501330000
O       -2.7815010000      1.4024890000     -0.0970280000
H       -3.3608660000      1.7054160000      0.6172680000
H       -2.7491450000      0.4205920000     -0.0339790000
O        2.7197760000      1.3863930000     -0.2125700000
H        1.7770380000      1.6788760000     -0.2087830000
H        3.1709380000      1.9208340000      0.4573290000
O        0.0050990000      1.4584130000     -0.0049220000
H       -0.9213510000      1.7765440000     -0.0873500000
H       -0.0203470000      0.8263110000      0.7589680000
O        2.2238240000     -1.2896060000      0.0722700000
H        2.5691320000     -0.3615510000     -0.0106480000
H        2.9895220000     -1.8812500000      0.0279770000
