  7
      file 'w2s1.log' was gotten at: ---' #p mp2=full gen pseudo=Read opt freq'---
Hg       0.0000026668     -0.0168497190     -0.0009253493
O        2.0015531788     -0.0663805205      0.0564370903
H        2.5270886742      0.6198946447      0.5102376629
H        2.5320189630     -0.4574182146     -0.6640476515
O       -2.0014461936     -0.0606116324     -0.0622201782
H       -2.5277674475      0.6630733379     -0.4524786753
H       -2.5321508417     -0.5171408960      0.6184161011
