  19
      file 'w6s18-Final.log' was gotten at: ---' #p mp2=full gen pseudo=Read freq'---
H        3.9141500000     -1.6426800000      0.7589300000
O        3.2511400000     -1.7027800000      0.0623400000
H        3.6854800000     -2.1313500000     -0.6840600000
H        2.1850300000     -0.7324300000     -0.1588200000
O        1.3628700000     -0.1362300000     -0.3545000000
H        1.5730900000      0.8410900000     -0.3504700000
H       -2.0349100000     -1.9251700000      2.2447900000
O       -2.0830300000     -1.3370200000      1.4762400000
H       -2.7792500000     -1.6542000000      0.8784700000
H        2.1369200000      2.9738600000      0.1964300000
O        1.5523900000      2.4767200000     -0.3903500000
H        1.6825800000      2.8796900000     -1.2589100000
H       -0.4332100000      2.3597400000      0.2617400000
O       -1.1064100000      1.7027600000      0.4937000000
H       -1.7645300000      2.1596900000      1.0308600000
H       -2.6929100000     -0.1372500000     -1.5890400000
O       -2.2238200000     -0.9054500000     -1.2389700000
H       -2.2281000000     -1.5461400000     -1.9619600000
Hg      -0.4241200000     -0.5965500000      0.4517200000
