  19
      file 'w6s1-Final.log' was gotten at: ---' #p mp2=full gen pseudo=Read freq geom=check'---
Hg      -0.0000946814     -0.1060793553      0.0038919705
O        5.8543184421     -0.3932331444      0.3659647562
H        6.5058200794     -0.7002108949     -0.2738776177
H        6.3170421562     -0.2832931461      1.2042029079
O       -5.8547330633     -0.3993503671     -0.3502000646
H       -6.5064191559     -0.6885607389      0.2976812574
H       -6.3173962244     -0.3118258748     -1.1911068262
O       -3.9312378685      1.0562435347      0.1134449950
H       -4.1356077611      1.8073937490      0.6851325557
H       -4.7747927280      0.4409716310     -0.0436154740
O        3.9318346923      1.0505798236     -0.1368042691
H        4.7750213723      0.4392015770      0.0367990767
H        4.1366769968      1.7859735460     -0.7284583454
O        1.7825774235     -0.0756146357     -0.7888808120
H        3.0709675768      0.5665317895     -0.4236539325
H        1.8294541383     -0.6851002253     -1.5374588507
O       -1.7827326162     -0.0533012810      0.7955834085
H       -3.0706420748      0.5795213445      0.4131923924
H       -1.8300327041     -0.6426183318      1.5601138720
