  19
      file 'w6s16-Final.log' was gotten at: ---' #p mp2=full gen pseudo=Read freq geom=check'---
Hg       0.2641473657     -0.1178510008     -0.1979039169
O        1.8201687843      1.7410166543      0.3591957518
H        2.2186086150      1.7337061136      1.2390088689
H        1.7726561580      2.6734795207      0.1118424833
O       -2.6110298165      2.3734593586      0.0465127926
H       -3.1390153225      2.6583770694     -0.7078079656
H       -2.9771392357      2.8358395009      0.8093346246
O        1.3953021503     -0.9717005522      1.7938268348
H        2.1017248248     -1.6293166611      1.7800035424
H        0.9933006718     -1.0590123168      2.6669280408
O        2.0974527438     -0.5401916907     -1.1202819686
H        2.1801825458     -0.9541244158     -1.9926563553
H        2.6961642192      0.2236575209     -1.0794521314
O       -1.6376589509      0.0830318915      0.3860426376
H       -2.0822814398      0.9918395250      0.2122965637
H       -2.2636495349     -0.7020109545      0.1651221563
O       -3.0547481363     -1.9309878498     -0.0825531579
H       -3.6204837005     -2.0718814695     -0.8497600321
H       -3.4836459415     -2.3914382438      0.6477322311
