7
    file 'w2s1.log' at: ---' #p HF gen pseudo=Read opt=(MaxCycle=150) freq geom=(nocrowd, newdefini'---
Hg     -0.0000953963      0.023757958     0.0010633958
O       2.0980818749     0.0249799128    -0.0334662908
H       2.6603600961     0.5419835364     0.5384538812
H       2.6419349249    -0.4905843862    -0.6241907817
O      -2.0982896214     0.0221017361     0.0353126095
H      -2.6604654953     0.6086873058    -0.4650974896
H      -2.6422273828    -0.5663590629     0.5533436756
