10
    file 'w3s3.log' at: ---' #p HF gen pseudo=Read opt=(MaxCycle=150) freq geom=(nocrowd, newdefini'---
Hg      0.4049115469    -0.0710976865    -0.0001602553
O       2.4265250284     0.5238166407    -0.0000676337
H       2.9624517239     0.6553246571    -0.7748607612
H       2.9623741847     0.6553382434     0.7747768013
O      -1.5237936034    -0.5868939301    -0.0002213932
H      -2.8580301082     0.0872729465    -0.0001316561
H      -1.6363516595    -1.5265650914    -0.0002846977
O      -3.7554716621     0.5725783044    -0.0000348078
H      -4.2807438354     0.4812326599    -0.7917168607
H      -4.2806846153     0.4810292561     0.7916632644
