16
    file 'w5s1.log' at: ---' #p HF gen pseudo=Read opt=(MaxCycle=150) freq geom=(nocrowd, newdefini'---
H      -3.1621225362     1.8139428763    -0.5122645918
O      -3.0203171475     0.8751159356    -0.4982747403
H       -3.866440566     0.3374332791    -0.3269330602
H       3.1854311146    -1.8330039169    -0.5465619372
O       2.9522130145    -0.9481507203    -0.3031584372
H       3.7562750672    -0.3702836269    -0.2685583227
H      -5.5430351536    -0.8792235934    -0.8684740101
O      -5.1000150435      -0.44421048    -0.1559604796
H       -5.693487926    -0.4071486512      0.578169199
H      -0.9017381313     0.2535425082     1.6714879268
O      -0.7829288734     0.2121493116      0.735270537
H      -2.2047135588     0.6106658219    -0.0196222729
H       5.3729243349     1.0204809824    -0.9406253863
O       4.9723561891     0.6106997012    -0.1895068492
H        5.613067448     0.6157347268     0.5047822895
Hg       1.052672768    -0.3620531543     0.2584391354
