16
    file 'w5s10.log' at: ---' #p HF gen pseudo=Read opt=(MaxCycle=150) freq geom=(nocrowd, newdefini'---
Hg      -0.356552266    -0.6734503307     0.0695081706
O       3.2655977893     0.8258823105    -0.6430674581
H       3.8216810945     1.2610662092    -0.0128812512
H       3.7519722424     0.8273595651    -1.4550003323
O      -1.5528746691    -0.6874044252     2.0371282857
H      -2.1058163712     0.0118906362     2.3585827556
H      -1.4709250493    -1.3225056449     2.7357161028
O       0.4702843733     1.3045391658    -0.6647021068
H       1.4159599623     1.4166936726    -0.7435493701
H       0.0345066596     2.0939625102    -0.9507770135
O       1.7675152491    -1.4625137439     0.1085843135
H       2.1070123526    -2.3281457584     0.2828015644
H       2.4899317573    -0.8742733981    -0.1039077787
O      -1.9142036101    -1.7574860621    -1.2077817601
H      -1.8418699971    -1.9744118934    -2.1273375134
H      -2.7549085174    -2.0732068127    -0.9057576081
