16
    file 'w5s2.log' at: ---' #p HF gen pseudo=Read opt=(MaxCycle=150) freq geom=(nocrowd, newdefini'---
H      -5.5159160129    -1.1197527973     0.4148448074
O      -4.9647082634    -0.7247848361    -0.2429456592
H      -5.3409527107    -0.9103821945    -1.0897897071
H       3.4971584401     1.5526467079    -0.1594414201
O       3.0025212163     0.7455221692    -0.1831273905
H       3.5779462982    -0.0097005191    -0.4659696247
H      -3.9355812597      0.302026832    -0.0230248505
O      -3.2339112422     1.0310303652     0.0798348417
H      -3.5741373401     1.8369636825     0.4492303938
H         4.62837722    -1.4631363307    -1.8010939402
O       4.4188361094    -1.2546567868    -0.9037846741
H       5.0607034004    -1.6856957033    -0.3608491469
H      -2.3572668882     0.7758378112     0.4410963136
O      -0.8457386741      0.422158564     1.0265413699
H      -0.9231528163     0.0488977446     1.8908446525
Hg      1.0483835234     0.5671222911     0.4627060347
