16
    file 'w5s5.log' at: ---' #p HF gen pseudo=Read opt=(MaxCycle=150) freq geom=(nocrowd, newdefini'---
Hg      -0.535584885     -2.740269365     0.7981663378
O      -0.0188576581    -3.9008488823      2.620193225
H       0.8313710269     -4.129113914     2.9683718443
H      -0.7073058626    -4.2533838419     3.1857635447
O       -2.669998784     -3.086498261     1.3731260159
H      -2.8865892159    -3.5839402435     2.1612351098
H      -3.4669468667    -2.8077643575     0.9447665357
O      -2.4835452069    -4.5931396946     3.7471186633
H      -2.7687067883    -5.4958109221     3.7648302343
H      -2.7563116404    -4.2220933822     4.5743837623
O        0.457068926    -1.7443168949    -0.7852298068
H       0.0262831497    -1.2896222471     -1.495297346
H       1.4377644992    -1.6871207858    -0.8898420157
O       3.0162275078    -1.6546254779    -0.9644783986
H       3.5233308641    -2.1749063676    -1.5687755147
H       3.5357259341    -0.8935563627    -0.7549201915
