16
    file 'w5s6.log' at: ---' #p HF gen pseudo=Read opt=(MaxCycle=150) freq geom=(nocrowd, newdefini'---
Hg      1.2011983719    -2.1173229169    -0.5734149652
O       -2.561227891    -0.1524799066    -1.1734981183
H      -2.9346172218    -0.2355876583    -2.0422343293
H      -3.2420401723      0.093897985    -0.4698333359
O      -4.2378105881     0.5362697499     0.5534726372
H      -5.0252539446     0.0820115357     0.8097230997
H      -4.2992906859     1.4240838877     0.8708584552
O       2.1875885896    -4.3665531027    -0.0833468777
H       2.2601298749    -4.7619125406     0.7735432439
H       2.2820880218    -5.0719089525    -0.7073869828
O       -0.803537069    -1.9773362429    -0.6597147448
H      -1.2171788239    -2.8031770071    -0.4652983328
H      -1.9053701504    -0.8631303775    -0.9537044692
O        3.319065195    -1.6799064844    -0.6120796372
H       3.7499284793    -0.8510842407    -0.7729099756
H       3.9712180143     -2.351922728    -0.4646246673
