16
    file 'w5s9.log' at: ---' #p HF gen pseudo=Read opt=(MaxCycle=150) freq geom=(nocrowd, newdefini'---
Hg      0.6099258093     0.0449075902    -0.0826828039
O      -2.9008153395    -2.2426895883    -0.0315847381
H      -3.3045727163    -2.6266965427     0.7309655746
H      -3.3378004863    -2.6089806273    -0.7844717305
O       -1.513415004    -0.0428915828    -0.0369596443
H      -2.0187955274      0.767122687    -0.0171922093
H      -2.0822302283    -0.8396549751    -0.0335451891
O       2.5212087674      -1.00604782    -0.1369252205
H       2.6306049403    -1.9491308242      -0.15070555
H       3.3821658342    -0.6064149996    -0.1509530701
O       0.6024187111     2.3228217334    -0.0566215551
H      -0.2457038646     2.7614690631    -0.0332944319
H       1.2906943208      2.972084768    -0.0639247015
O      -2.2101589459     2.7088838047     0.0085187792
H      -2.6192507747     3.0827055905     0.7757649774
H      -2.6516584965     3.1009227229    -0.7311754867
