  13
  w4s3 opt at ZORA-SR+SO  PBE/QZ4P
H        3.8244450000      0.1052760000     -0.6671970000
O        3.3000850000     -0.1682550000      0.1159550000
H        3.7542360000      0.1591060000      0.9217980000
H       -1.2753850000      0.9492840000      0.0051640000
O       -0.7438650000     -0.0177580000     -0.1260900000
H       -1.2996420000     -0.9770950000      0.0052910000
H       -2.3942160000      2.3743580000      0.8739900000
O       -1.8610750000      2.1495050000      0.0893970000
H       -2.3401500000      2.4841500000     -0.6912480000
H       -2.4408890000     -2.3739460000      0.8724520000
O       -1.9039360000     -2.1586370000      0.0876680000
H       -2.3878120000     -2.4840810000     -0.6940310000
Hg       1.2226450000     -0.0428320000      0.0163660000
