  16
  w5s1 opt at ZORA-SR+SO  PBE/QZ4P
H       -3.1353680000      1.7717150000     -0.5229050000
O       -3.0057620000      0.8057900000     -0.5221760000
H       -3.9590700000      0.2223930000     -0.2991650000
H        3.0909700000     -1.7363060000     -0.4417570000
O        2.9018250000     -0.7797260000     -0.4531800000
H        3.8400120000     -0.1628180000     -0.2875520000
H       -5.4356260000     -0.8892400000     -0.9012940000
O       -5.0013360000     -0.5267200000     -0.1070090000
H       -5.7018080000     -0.2200990000      0.4971060000
H       -0.8251720000      0.2233020000      1.7490020000
O       -0.7739790000      0.2317010000      0.7748580000
H       -2.1748710000      0.5664950000      0.0065380000
H        5.3366560000      0.8744790000     -0.9697480000
O        4.8699180000      0.6216510000     -0.1512130000
H        5.5475380000      0.3853370000      0.5091720000
Hg       1.0562150000     -0.2822650000      0.2375320000
