  16
  w5s3 opt at ZORA-SR+SO  PBE/QZ4P
Hg       0.3675190000     -2.3898130000      1.2354400000
O        1.8670080000     -3.4092530000      0.3613590000
H        2.0285050000     -3.6716950000     -0.8005000000
H        2.3375800000     -4.0112150000      0.9671050000
O       -1.1118800000     -1.3120070000      2.0205930000
H       -0.8560150000     -0.3780780000      2.4830710000
H       -1.9385900000     -1.8377090000      2.4562350000
O       -3.0394610000     -2.5981240000      2.9156620000
H       -3.1984400000     -2.7281950000      3.8672380000
H       -3.9100440000     -2.4452080000      2.5067730000
O       -0.4652100000      0.8892260000      2.9690430000
H       -0.8659160000      1.6823170000      2.5705120000
H       -0.3907000000      1.0640860000      3.9237640000
O        2.1978160000     -3.8584140000     -1.9928230000
H        2.0829430000     -4.7732560000     -2.3169930000
H        3.0309480000     -3.5057340000     -2.3630200000
