  16
  w5s4 opt at ZORA-SR+SO  PBE/QZ4P
Hg      -0.6361500000      1.2348580000      1.4466370000
O        1.2168890000      0.5102940000      1.5293730000
H        1.8839660000      0.7431650000      0.7234110000
H        1.3585440000     -0.4478170000      1.9914570000
O       -2.4957830000      2.0052900000      1.4683850000
H       -2.9015630000      3.0143410000      1.9926860000
H       -3.0639240000      1.6840200000      0.7442220000
O        1.4815050000     -1.6575340000      2.7103300000
H        2.0498930000     -1.6715950000      3.5009570000
H        1.6213620000     -2.5045800000      2.2514720000
O       -3.2879010000      3.9976870000      2.5887770000
H       -3.5394710000      4.7691770000      2.0446520000
H       -3.9956770000      3.8433270000      3.2447110000
O        2.7351230000      1.1796720000     -0.3196380000
H        3.5342630000      1.6843370000     -0.0849280000
H        2.9866930000      0.5830820000     -1.0465680000
