  16
  w5s10 opt at ZORA-SR+SO  PBE/QZ4P
Hg      -0.4060510000     -0.4226200000     -0.2999460000
O        3.1700540000      0.8922460000     -0.5139400000
H        3.7030190000      1.2775370000      0.2077530000
H        3.7049260000      1.0224690000     -1.3203280000
O       -1.6820250000     -0.8223190000      1.6931320000
H       -2.1959480000     -0.0935720000      2.0907700000
H       -1.2468790000     -1.2723790000      2.4424900000
O        0.6394160000      1.4756630000     -0.4128860000
H        1.6530410000      1.3629800000     -0.5379560000
H        0.3054440000      2.1398710000     -1.0454900000
O        1.6708440000     -1.4783340000      0.0709550000
H        1.8650500000     -2.3878740000     -0.2194270000
H        2.4461670000     -0.9184090000     -0.1622170000
O       -1.7944820000     -2.0191460000     -0.9784410000
H       -2.1708830000     -1.9987300000     -1.8803560000
H       -2.5343820000     -2.1693870000     -0.3565550000
