  19
  w6s21 opt at ZORA-SR+SO  PBE/QZ4P
Hg      -0.0833990000     -0.1557170000     -0.0097920000
O       -2.0524070000      0.1727250000      1.3123660000
H       -2.6957080000     -0.5590630000      1.3483310000
H       -2.0031620000      0.5362050000      2.2156470000
O        1.3067010000     -0.0728730000      1.8093590000
H        1.2611060000     -0.7877880000      2.4706900000
H        2.2680040000      0.0404500000      1.5508440000
O       -1.2129760000      1.3686720000     -1.4320990000
H       -1.9559710000      1.8623370000     -1.0373350000
H       -0.6957230000      2.0179800000     -1.9433000000
O       -1.4429470000     -1.8108960000     -1.0236760000
H       -1.1728700000     -2.7439520000     -1.1022680000
H       -1.8378420000     -1.5694490000     -1.8825490000
O        3.7302650000      0.3856020000      0.6822360000
H        4.4711000000     -0.2440330000      0.7590120000
H        4.1269810000      1.2601700000      0.8554830000
O        1.8257110000      0.2476610000     -1.3174370000
H        2.6580300000      0.2753920000     -0.7745930000
H        2.0114760000     -0.2949960000     -2.1046170000
