   10

 N       -0.000142   -0.611556   -0.000391
 O       -0.000139    0.638576   -0.001552
 O        1.073847   -1.231385    0.000675
 O       -1.074099   -1.231449   -0.000290
 O       -2.882651    0.996566    0.000882
 H       -2.606851    0.069000    0.000470
 H       -2.005550    1.397268    0.000043
 O        2.883153    0.996066    0.000502
 H        2.006952    1.398639   -0.000837
 H        2.605548    0.068991    0.001326

