   7

 N        0.770469    0.000014    0.000013
 O        0.143999    1.080418    0.000060
 O        2.004415   -0.000109   -0.000088
 O        0.143810   -1.080312    0.000077
 O       -2.501339   -0.000089   -0.000059
 H       -1.859701   -0.724295   -0.000107
 H       -1.860664    0.724927    0.000098

