   19

 N       -0.236063   -1.472435   -0.065982
 O        0.920726   -1.894600    0.001094
 O       -0.894263   -1.302733    0.984679
 O       -0.751966   -1.207600   -1.166171
 O       -0.720962    2.289273    0.320766
 H       -0.175159    1.830039    0.984178
 H       -1.537072    1.767965    0.264304
 O       -2.876318    0.402964   -0.025692
 H       -2.570175    0.139159   -0.899899
 H       -2.369146   -0.223723    0.518810
 O        0.965767    0.722019    1.967637
 H        1.696392    0.618852    1.333610
 H        0.460952   -0.099360    1.887392
 O        2.785050    0.282246   -0.192055
 H        2.428689   -0.615981   -0.203554
 H        2.210839    0.736863   -0.834669
 O        0.700895    1.221082   -1.837558
 H        0.194017    1.702628   -1.155734
 H        0.281679    0.349404   -1.854165

