   19

 N       -1.618458    0.384704   -0.395654
 O       -1.772672    1.282493    0.442371
 O       -2.181568   -0.710745   -0.261904
 O       -0.873194    0.574829   -1.383050
 O        1.483928    2.006406   -0.643347
 H        0.617815    1.708861   -0.968573
 H        2.051423    1.225938   -0.738569
 O        2.757585   -0.504798   -0.172985
 H        2.386444   -0.405430    0.709480
 H        2.088076   -1.044565   -0.640112
 O        0.620588   -1.896416   -1.237586
 H        0.312505   -2.101806   -0.340301
 H        0.021101   -1.185135   -1.513909
 O       -0.230045   -1.797663    1.509906
 H       -1.092519   -1.547828    1.146727
 H        0.194227   -0.944968    1.695652
 O        0.686198    0.929406    1.827206
 H        1.077305    1.408224    1.072441
 H       -0.253733    1.125687    1.701841

