   13

 N       -1.572922   -0.047040    0.008415
 O       -1.228192    1.149274    0.039956
 O       -0.686072   -0.939727   -0.063091
 O       -2.754615   -0.360093    0.043235
 O        1.674289   -0.360310   -1.622252
 H        1.786790    0.504886   -1.200873
 H        0.784586   -0.606103   -1.322339
 O        1.502290    1.676369    0.403821
 H        1.763497    0.914171    0.937147
 H        0.542422    1.544057    0.286294
 O        1.872125   -1.136867    1.187687
 H        0.911347   -1.130675    1.053778
 H        2.183199   -1.126235    0.272233

