   13

 N       -1.641147    0.000077   -0.000052
 O       -1.003396   -0.000106    1.081455
 O       -1.002763    0.000691   -1.081259
 O       -2.862972   -0.000312   -0.000431
 O        3.337898   -0.000431   -0.000272
 H        2.726090    0.749000   -0.000115
 H        2.725681   -0.749508   -0.000068
 O        1.008147   -1.746011    0.000069
 H        0.537867   -1.331389   -0.736453
 H        0.537035   -1.331559    0.736195
 O        1.008796    1.746077    0.000245
 H        0.538712    1.332595    0.737491
 H        0.536961    1.331064   -0.735147

