10
    file 'w3s1.log' at: ---' #p HF gen pseudo=Read opt=(MaxCycle=150) freq geom=(nocrowd, newdefini'---
Hg       1.433560121     1.7776291141     0.0659234206
O        0.046486761      3.330381394    -0.1396720559
H      -0.5474992006     3.6299161519     0.5403983334
H      -0.0520911441     3.8822489842     -0.908241882
O        2.717236138     0.2767229438     0.2611884538
H       2.7530542777    -1.2101525471     0.0094725292
H       3.5474893421     0.5685869734     0.6091608494
O       2.7510045093    -2.2109539747    -0.1692784905
H       3.3256335462    -2.5116032729    -0.8698627412
H       2.7976256495    -2.7730477667     0.6009695833
