10
    file 'w3s2.log' at: ---' #p HF gen pseudo=Read opt=(MaxCycle=150) freq geom=(nocrowd, newdefini'---
Hg     -0.1107974551     0.0890261054    -0.0039206718
O      -1.8525959028    -1.2169723437    -0.0820592554
H       -1.843688922    -2.1674671492    -0.1000187136
H      -2.7575282458    -0.9268442252     -0.104203367
O       2.0664636329     0.0650920585     0.0601614772
H       2.6214408493    -0.7068155176     0.0618606293
H       2.6247947476     0.8337703835     0.0913606285
O      -0.8202508672     2.2538418184     0.0188055576
H      -0.9728823907     2.8041994642    -0.7398746346
H      -1.0174784464     2.7732074056     0.7889643499
