10
    file 'w3s3.log' at: ---' #p HF gen pseudo=Read opt=(MaxCycle=150) freq geom=(nocrowd, newdefini'---
Hg      0.4060089031    -0.0719305305    -0.0003204078
O       2.4119688529     0.5228700043     -0.000042359
H       2.9474947617     0.6511834505    -0.7757889317
H       2.9472375241     0.6513202565     0.7758593518
O      -1.5104444551    -0.5875230178    -0.0003998797
H       -2.856723515     0.0921796396    -0.0002721048
H      -1.6207366131    -1.5274353818    -0.0001970771
O      -3.7514031809     0.5751999214    -0.0000370926
H      -4.2762920902     0.4831323232    -0.7921405781
H      -4.2759231875     0.4830393347     0.7923010792
