13
    file 'w4s2.log' at: ---' #p HF gen pseudo=Read opt=(MaxCycle=150) freq geom=(nocrowd, newdefini'---
H       3.8899111749     0.0063631551    -0.7805631216
O       3.3400363521     0.0063565853    -0.0031557804
H       3.8910197582     0.0082093571     0.7734634547
H      -1.2841091171     0.8324264046     0.0000092751
O      -0.7463725382    -0.0015669133    -0.0002106829
H      -1.2818207961    -0.8374054636     0.0012824907
H       -2.409322748     2.6018981663     0.7595782321
O      -1.9956606971     2.2204198572     0.0000296558
H      -2.4106331901     2.6009258443    -0.7592935857
H      -2.4026271218    -2.6062534881     0.7639938075
O      -1.9898194827    -2.2253951968     0.0036599088
H       -2.403758705    -2.6083857273    -0.7549861759
Hg      1.2547111106     0.0024474192    -0.0016674783
