16
    file 'w5s6.log' at: ---' #p HF gen pseudo=Read opt=(MaxCycle=150) freq geom=(nocrowd, newdefini'---
Hg      1.2195497936    -2.0348296258    -0.6016265059
O      -2.5813845174    -0.1387003345    -1.1777059612
H      -2.9544551568    -0.2282187032    -2.0460763472
H      -3.2649999639     0.0965463842    -0.4693240542
O      -4.2563640766     0.5193760669     0.5538828015
H      -5.0370135229     0.0532450324     0.8098882256
H      -4.3288713988     1.4054306794     0.8741030211
O       2.1991924716    -4.3481900562    -0.0586334514
H       2.2547893449    -4.7332404912     0.8039244059
H       2.2775351769    -5.0667933103    -0.6692762033
O      -0.7714811403    -1.9406981475    -0.6736302467
H      -1.1632709802    -2.7762818347    -0.4753335697
H      -1.9134316501    -0.8338592654    -0.9616463107
O       3.3275275439    -1.7181204635    -0.6244787948
H       3.8085559698    -0.9198259082    -0.7977351182
H       3.9290121062    -2.4318990224    -0.4567808908
