16
    file 'w5s8.log' at: ---' #p HF gen pseudo=Read opt=(MaxCycle=150) freq geom=(nocrowd, newdefini'---
H      -0.7819152704     2.8120512599    -0.6220310701
O       -0.014959739     2.2742495069    -0.4866159931
H       0.7451825508     2.8215173538    -0.6225115579
H        3.041993412     0.0205381876     0.0471212328
O       2.3214644546     0.0172727788    -0.5669254649
H       2.6994075493      0.022055981    -1.4349349177
H      -0.0055641495     0.7530607003     2.8984247309
O      -0.0004814245    -0.0070115331     2.3339858926
H       0.0047044512    -0.7704706478     2.8938336538
H      -3.0423469918     -0.020887265     0.0477617434
O      -2.3219717533    -0.0142423877    -0.5664396095
H      -2.7001118217    -0.0143071631    -1.4343778891
H      -0.7439243264    -2.8191365068    -0.6372490078
O       0.0157282036     -2.271877198    -0.4985983488
H       0.7831573237    -2.8081619559    -0.6372969825
Hg     -0.0003408057     -0.000062961    -0.0114167303
